
 OpenBabel01172420503D

 22 21  0  0  1  0  0  0  0  0999 V2000
    2.7323   -2.2093   -2.9308 O   0  0  0  0  0  0  0  0  0  0  0  0
    2.3718   -0.9973   -2.2798 C   0  0  0  0  0  0  0  0  0  0  0  0
    2.8966   -1.0261   -0.8368 C   0  0  2  0  0  0  0  0  0  0  0  0
    2.3602    0.1719   -0.0060 C   0  0  1  0  0  0  0  0  0  0  0  0
    3.0499    1.7860   -0.5509 S   0  0  0  0  0  0  0  0  0  0  0  0
    2.5809   -0.0374    1.5065 C   0  0  0  0  0  0  0  0  0  0  0  0
    1.8530    0.9686    2.3925 C   0  0  0  0  0  0  0  0  0  0  0  0
    4.4254   -1.1745   -0.8310 C   0  0  0  0  0  0  0  0  0  0  0  0
    2.8194   -2.0130   -3.8818 H   0  0  0  0  0  0  0  0  0  0  0  0
    1.2790   -0.9103   -2.3050 H   0  0  0  0  0  0  0  0  0  0  0  0
    2.7979   -0.1612   -2.8473 H   0  0  0  0  0  0  0  0  0  0  0  0
    2.5017   -1.9453   -0.3794 H   0  0  0  0  0  0  0  0  0  0  0  0
    1.2781    0.2392   -0.1764 H   0  0  0  0  0  0  0  0  0  0  0  0
    4.2982    1.5834   -0.1026 H   0  0  0  0  0  0  0  0  0  0  0  0
    3.6485   -0.0202    1.7544 H   0  0  0  0  0  0  0  0  0  0  0  0
    2.2158   -1.0366    1.7773 H   0  0  0  0  0  0  0  0  0  0  0  0
    2.2486    1.9810    2.2719 H   0  0  0  0  0  0  0  0  0  0  0  0
    1.9746    0.6929    3.4455 H   0  0  0  0  0  0  0  0  0  0  0  0
    0.7817    0.9849    2.1706 H   0  0  0  0  0  0  0  0  0  0  0  0
    4.9183   -0.3659   -1.3832 H   0  0  0  0  0  0  0  0  0  0  0  0
    4.7248   -2.1160   -1.3073 H   0  0  0  0  0  0  0  0  0  0  0  0
    4.8263   -1.1909    0.1846 H   0  0  0  0  0  0  0  0  0  0  0  0
  1  2  1  0  0  0  0
  1  9  1  0  0  0  0
  2 10  1  0  0  0  0
  2 11  1  0  0  0  0
  3  8  1  0  0  0  0
  3  4  1  0  0  0  0
  3  2  1  0  0  0  0
  3 12  1  1  0  0  0
  4  5  1  0  0  0  0
  4  6  1  0  0  0  0
  4 13  1  1  0  0  0
  5 14  1  0  0  0  0
  6  7  1  0  0  0  0
  6 15  1  0  0  0  0
  6 16  1  0  0  0  0
  7 17  1  0  0  0  0
  7 18  1  0  0  0  0
  7 19  1  0  0  0  0
  8 20  1  0  0  0  0
  8 21  1  0  0  0  0
  8 22  1  0  0  0  0
M  END
$$$$
