
 OpenBabel01172420503D

 22 21  0  0  1  0  0  0  0  0999 V2000
    0.9474    0.1396   -0.0542 O   0  0  0  0  0  0  0  0  0  0  0  0
    2.3686    0.1101   -0.0531 C   0  0  0  0  0  0  0  0  0  0  0  0
    2.9003    0.3745    1.3654 C   0  0  1  0  0  0  0  0  0  0  0  0
    2.3829   -0.6582    2.4115 C   0  0  1  0  0  0  0  0  0  0  0  0
    2.9185   -2.3786    2.0370 S   0  0  0  0  0  0  0  0  0  0  0  0
    2.7720   -0.2578    3.8522 C   0  0  0  0  0  0  0  0  0  0  0  0
    2.2031   -1.1584    4.9437 C   0  0  0  0  0  0  0  0  0  0  0  0
    4.4270    0.5196    1.3178 C   0  0  0  0  0  0  0  0  0  0  0  0
    0.6607   -0.1367   -0.9437 H   0  0  0  0  0  0  0  0  0  0  0  0
    2.7166    0.8875   -0.7414 H   0  0  0  0  0  0  0  0  0  0  0  0
    2.7052   -0.8553   -0.4443 H   0  0  0  0  0  0  0  0  0  0  0  0
    2.4939    1.3497    1.6712 H   0  0  0  0  0  0  0  0  0  0  0  0
    1.2872   -0.6715    2.3623 H   0  0  0  0  0  0  0  0  0  0  0  0
    4.2201   -2.2020    2.3026 H   0  0  0  0  0  0  0  0  0  0  0  0
    2.4104    0.7621    4.0386 H   0  0  0  0  0  0  0  0  0  0  0  0
    3.8611   -0.2273    3.9692 H   0  0  0  0  0  0  0  0  0  0  0  0
    1.1172   -1.2540    4.8557 H   0  0  0  0  0  0  0  0  0  0  0  0
    2.4264   -0.7345    5.9286 H   0  0  0  0  0  0  0  0  0  0  0  0
    2.6453   -2.1596    4.9185 H   0  0  0  0  0  0  0  0  0  0  0  0
    4.9210   -0.4124    1.0278 H   0  0  0  0  0  0  0  0  0  0  0  0
    4.8305    0.8371    2.2835 H   0  0  0  0  0  0  0  0  0  0  0  0
    4.7173    1.2826    0.5867 H   0  0  0  0  0  0  0  0  0  0  0  0
  1  2  1  0  0  0  0
  1  9  1  0  0  0  0
  2  3  1  0  0  0  0
  2 10  1  0  0  0  0
  2 11  1  0  0  0  0
  3  4  1  0  0  0  0
  3  8  1  0  0  0  0
  3 12  1  1  0  0  0
  4  5  1  0  0  0  0
  4  6  1  0  0  0  0
  4 13  1  6  0  0  0
  5 14  1  0  0  0  0
  6  7  1  0  0  0  0
  6 15  1  0  0  0  0
  6 16  1  0  0  0  0
  7 17  1  0  0  0  0
  7 18  1  0  0  0  0
  7 19  1  0  0  0  0
  8 20  1  0  0  0  0
  8 21  1  0  0  0  0
  8 22  1  0  0  0  0
M  END
$$$$
