
 OpenBabel01052419083D

 25 25  0  0  1  0  0  0  0  0999 V2000
    1.9196   -1.4645   -0.0165 C   0  0  0  0  0  0  0  0  0  0  0  0
    0.5778   -0.8073    0.0476 C   0  0  0  0  0  0  0  0  0  0  0  0
   -0.5839   -1.4819    0.0406 C   0  0  0  0  0  0  0  0  0  0  0  0
   -1.9410   -0.8463    0.0786 C   0  0  0  0  0  0  0  0  0  0  0  0
   -1.9088    0.6464   -0.2943 C   0  0  2  0  0  0  0  0  0  0  0  0
   -0.7748    1.3586    0.4480 C   0  0  0  0  0  0  0  0  0  0  0  0
    0.5513    0.6842    0.1598 C   0  0  0  0  0  0  0  0  0  0  0  0
    1.5976    1.3278    0.0948 O   0  0  0  0  0  0  0  0  0  0  0  0
   -3.2626    1.3176   -0.0970 C   0  0  0  0  0  0  0  0  0  0  0  0
   -3.8991    1.9021   -1.1270 C   0  0  0  0  0  0  0  0  0  0  0  0
   -3.8857    1.3034    1.2743 C   0  0  0  0  0  0  0  0  0  0  0  0
    1.8352   -2.5561   -0.0531 H   0  0  0  0  0  0  0  0  0  0  0  0
    2.5147   -1.2097    0.8663 H   0  0  0  0  0  0  0  0  0  0  0  0
    2.4636   -1.1438   -0.9109 H   0  0  0  0  0  0  0  0  0  0  0  0
   -0.5699   -2.5707    0.0006 H   0  0  0  0  0  0  0  0  0  0  0  0
   -2.3495   -1.0042    1.0830 H   0  0  0  0  0  0  0  0  0  0  0  0
   -2.5995   -1.3743   -0.6229 H   0  0  0  0  0  0  0  0  0  0  0  0
   -1.6575    0.6928   -1.3657 H   0  0  0  0  0  0  0  0  0  0  0  0
   -0.9222    1.3537    1.5345 H   0  0  0  0  0  0  0  0  0  0  0  0
   -0.7077    2.4007    0.1159 H   0  0  0  0  0  0  0  0  0  0  0  0
   -4.8704    2.3749   -1.0037 H   0  0  0  0  0  0  0  0  0  0  0  0
   -3.4729    1.9257   -2.1266 H   0  0  0  0  0  0  0  0  0  0  0  0
   -4.8332    1.8534    1.2975 H   0  0  0  0  0  0  0  0  0  0  0  0
   -3.2229    1.7658    2.0095 H   0  0  0  0  0  0  0  0  0  0  0  0
   -4.1051    0.2797    1.5922 H   0  0  0  0  0  0  0  0  0  0  0  0
  1  2  1  0  0  0  0
  1 12  1  0  0  0  0
  1 13  1  0  0  0  0
  1 14  1  0  0  0  0
  2  3  2  0  0  0  0
  2  7  1  0  0  0  0
  3  4  1  0  0  0  0
  3 15  1  0  0  0  0
  4  5  1  0  0  0  0
  4 16  1  0  0  0  0
  4 17  1  0  0  0  0
  5  6  1  0  0  0  0
  5  9  1  0  0  0  0
  5 18  1  6  0  0  0
  6  7  1  0  0  0  0
  6 19  1  0  0  0  0
  6 20  1  0  0  0  0
  7  8  2  0  0  0  0
  9 10  2  0  0  0  0
  9 11  1  0  0  0  0
 10 21  1  0  0  0  0
 10 22  1  0  0  0  0
 11 23  1  0  0  0  0
 11 24  1  0  0  0  0
 11 25  1  0  0  0  0
M  END
$$$$
