TheMolecule
  primarydock-2408251339203D
https://github.com/primaryodors/primarydock
 25 25  0     0  0  0  0  0  0999 V2000
    1.9376   -1.5385    0.0460 C   0  0  0  0  0  0  0  0  0  0  0  0
    0.5761   -0.8245    0.1355 C   0  0  0  0  0  0  0  0  0  0  0  0
   -0.5836   -1.4959    0.1318 C   0  0  0  0  0  0  0  0  0  0  0  0
   -1.9405   -0.7675    0.1301 C   0  0  0  0  0  0  0  0  0  0  0  0
   -1.8429    0.5115    0.9822 C   0  0  0  0  0  0  0  0  0  0  0  0
   -0.7529    1.4285    0.3967 C   0  0  0  0  0  0  0  0  0  0  0  0
    0.5959    0.7143    0.1913 C   0  0  0  0  0  0  0  0  0  0  0  0
    1.6367    1.3024    0.2766 O   0  0  0  0  0  0  0  0  0  0  0  0
   -3.1494    1.3120    1.1369 C   0  0  0  0  0  0  0  0  0  0  0  0
   -4.3462    0.9777    0.6353 C   0  0  0  0  0  0  0  0  0  0  0  0
   -3.0716    2.5982    1.9803 C   0  0  0  0  0  0  0  0  0  0  0  0
    1.7825   -2.6165    0.0008 H   0  0  0  0  0  0  0  0  0  0  0  0
    2.5273   -1.2925    0.9290 H   0  0  0  0  0  0  0  0  0  0  0  0
    2.4640   -1.2032   -0.8476 H   0  0  0  0  0  0  0  0  0  0  0  0
   -0.5504   -2.5853    0.1253 H   0  0  0  0  0  0  0  0  0  0  0  0
   -2.6996   -1.4306    0.5451 H   0  0  0  0  0  0  0  0  0  0  0  0
   -2.2105   -0.5020   -0.8920 H   0  0  0  0  0  0  0  0  0  0  0  0
   -1.5318    0.1716    1.9700 H   0  0  0  0  0  0  0  0  0  0  0  0
   -0.5938    2.2688    1.0725 H   0  0  0  0  0  0  0  0  0  0  0  0
   -1.1088    1.8013   -0.5637 H   0  0  0  0  0  0  0  0  0  0  0  0
   -4.4594    0.0645    0.0511 H   0  0  0  0  0  0  0  0  0  0  0  0
   -5.2042    1.6297    0.7994 H   0  0  0  0  0  0  0  0  0  0  0  0
   -2.0931    2.6956    2.4504 H   0  0  0  0  0  0  0  0  0  0  0  0
   -3.8427    2.5667    2.7501 H   0  0  0  0  0  0  0  0  0  0  0  0
   -3.2488    3.4523    1.3267 H   0  0  0  0  0  0  0  0  0  0  0  0
  1  2 1.00  0  0  0  0
  1 12 1.00  0  0  0  0
  1 13 1.00  0  0  0  0
  1 14 1.00  0  0  0  0
  2  3 2.00  0  0  0  0
  2  7 1.00  0  0  0  0
  3  4 1.00  0  0  0  0
  3 15 1.00  0  0  0  0
  4  5 1.00  0  0  0  0
  4 16 1.00  0  0  0  0
  4 17 1.00  0  0  0  0
  5  6 1.00  0  0  0  0
  5  9 1.00  0  0  0  0
  5 18 1.00  0  0  0  0
  6  7 1.00  0  0  0  0
  6 19 1.00  0  0  0  0
  6 20 1.00  0  0  0  0
  7  8 2.00  0  0  0  0
  9 10 2.00  0  0  0  0
  9 11 1.00  0  0  0  0
 10 21 1.00  0  0  0  0
 10 22 1.00  0  0  0  0
 11 23 1.00  0  0  0  0
 11 24 1.00  0  0  0  0
 11 25 1.00  0  0  0  0
M  END

