
 OpenBabel01052419183D

 25 24  0  0  0  0  0  0  0  0999 V2000
    0.9660    0.0401   -0.0713 C   0  0  0  0  0  0  0  0  0  0  0  0
    2.4838    0.0516   -0.0920 C   0  0  0  0  0  0  0  0  0  0  0  0
    3.0158    0.6434   -1.3968 C   0  0  0  0  0  0  0  0  0  0  0  0
    4.5399    0.6453   -1.4010 C   0  0  0  0  0  0  0  0  0  0  0  0
    5.1139    1.2316   -2.6892 C   0  0  0  0  0  0  0  0  0  0  0  0
    6.6297    1.2142   -2.6555 C   0  0  0  0  0  0  0  0  0  0  0  0
    7.2500    0.7772   -1.6845 O   0  0  0  0  0  0  0  0  0  0  0  0
    7.3440    1.7666   -3.8736 C   0  0  0  0  0  0  0  0  0  0  0  0
    8.8525    1.6871   -3.7086 C   0  0  0  0  0  0  0  0  0  0  0  0
    0.6024   -0.3862    0.8685 H   0  0  0  0  0  0  0  0  0  0  0  0
    0.5696   -0.5617   -0.8953 H   0  0  0  0  0  0  0  0  0  0  0  0
    0.5673    1.0554   -0.1629 H   0  0  0  0  0  0  0  0  0  0  0  0
    2.8554   -0.9726    0.0324 H   0  0  0  0  0  0  0  0  0  0  0  0
    2.8532    0.6344    0.7603 H   0  0  0  0  0  0  0  0  0  0  0  0
    2.6446    1.6681   -1.5175 H   0  0  0  0  0  0  0  0  0  0  0  0
    2.6447    0.0593   -2.2473 H   0  0  0  0  0  0  0  0  0  0  0  0
    4.9070   -0.3810   -1.2708 H   0  0  0  0  0  0  0  0  0  0  0  0
    4.9072    1.2212   -0.5418 H   0  0  0  0  0  0  0  0  0  0  0  0
    4.7837    2.2679   -2.8134 H   0  0  0  0  0  0  0  0  0  0  0  0
    4.7811    0.6464   -3.5530 H   0  0  0  0  0  0  0  0  0  0  0  0
    7.0397    2.8083   -4.0103 H   0  0  0  0  0  0  0  0  0  0  0  0
    7.0353    1.1866   -4.7484 H   0  0  0  0  0  0  0  0  0  0  0  0
    9.1800    2.2592   -2.8334 H   0  0  0  0  0  0  0  0  0  0  0  0
    9.3609    2.0868   -4.5900 H   0  0  0  0  0  0  0  0  0  0  0  0
    9.1754    0.6499   -3.5656 H   0  0  0  0  0  0  0  0  0  0  0  0
  1  2  1  0  0  0  0
  1 10  1  0  0  0  0
  1 11  1  0  0  0  0
  1 12  1  0  0  0  0
  2  3  1  0  0  0  0
  2 13  1  0  0  0  0
  2 14  1  0  0  0  0
  3  4  1  0  0  0  0
  3 15  1  0  0  0  0
  3 16  1  0  0  0  0
  4  5  1  0  0  0  0
  4 17  1  0  0  0  0
  4 18  1  0  0  0  0
  5  6  1  0  0  0  0
  5 19  1  0  0  0  0
  5 20  1  0  0  0  0
  6  7  2  0  0  0  0
  6  8  1  0  0  0  0
  8  9  1  0  0  0  0
  8 21  1  0  0  0  0
  8 22  1  0  0  0  0
  9 23  1  0  0  0  0
  9 24  1  0  0  0  0
  9 25  1  0  0  0  0
M  END
$$$$
