alanine
 OpenBabel07232223113D

 13 12  0     0  0  0  0  0  0999 V2000
    2.9746   -1.1926   -0.7231 N   0  0  0  0  0  0  0  0  0  0  0  0
    2.4919   -0.0079    0.0445 C   0  0  0  0  0  0  0  0  0  0  0  0
    0.9546   -0.0276    0.0538 C   0  0  0  0  0  0  0  0  0  0  0  0
    0.2270    0.9339    0.2462 O   0  0  0  0  0  0  0  0  0  0  0  0
    0.4908   -1.2878   -0.1623 O   0  0  0  0  0  0  0  0  0  0  0  0
    3.0367    1.2820   -0.5519 C   0  0  0  0  0  0  0  0  0  0  0  0
    3.9977   -1.2035   -0.6650 H   0  0  0  0  0  0  0  0  0  0  0  0
    2.7894   -1.0210   -1.7182 H   0  0  0  0  0  0  0  0  0  0  0  0
    2.8212   -0.1136    1.0830 H   0  0  0  0  0  0  0  0  0  0  0  0
    1.2916   -1.8511   -0.3095 H   0  0  0  0  0  0  0  0  0  0  0  0
    2.6989    1.4260   -1.5845 H   0  0  0  0  0  0  0  0  0  0  0  0
    4.1327    1.2870   -0.5436 H   0  0  0  0  0  0  0  0  0  0  0  0
    2.6972    2.1489    0.0263 H   0  0  0  0  0  0  0  0  0  0  0  0
  2  6 1.00  0  0  0  0
  2  3 1.00  0  0  0  0
  2  1 1.00  0  0  0  0
  2  9 1.00  0  0  0  0
  3  4 2.00  0  0  0  0
  3  5 1.00  0  0  0  0
  5 10 1.00  0  0  0  0
  6 11 1.00  0  0  0  0
  6 12 1.00  0  0  0  0
  6 13 1.00  0  0  0  0
  7  1 1.00  0  0  0  0
  8  1 1.00  0  0  0  0
M  END

