alanine
 OpenBabel06142306093D

 13 12  0     0  0  0  0  0  0999 V2000
    2.8418    0.4039   -1.4741 N   0  0  0  0  0  0  0  0  0  0  0  0
    2.4245   -0.0053   -0.1011 C   0  0  0  0  0  0  0  0  0  0  0  0
    0.8885   -0.0476   -0.0522 C   0  0  0  0  0  0  0  0  0  0  0  0
    0.2041   -0.0157    0.9580 O   0  0  0  0  0  0  0  0  0  0  0  0
    0.3692   -0.1637   -1.3047 O   0  0  0  0  0  0  0  0  0  0  0  0
    2.9930    0.9416    0.9439 C   0  0  0  0  0  0  0  0  0  0  0  0
    3.8569    0.2798   -1.5400 H   0  0  0  0  0  0  0  0  0  0  0  0
    2.7124    1.4189   -1.5566 H   0  0  0  0  0  0  0  0  0  0  0  0
    2.7790   -1.0265    0.0736 H   0  0  0  0  0  0  0  0  0  0  0  0
    1.1454   -0.1424   -1.9192 H   0  0  0  0  0  0  0  0  0  0  0  0
    2.6217    1.9635    0.8079 H   0  0  0  0  0  0  0  0  0  0  0  0
    4.0873    0.9645    0.9010 H   0  0  0  0  0  0  0  0  0  0  0  0
    2.7054    0.6217    1.9517 H   0  0  0  0  0  0  0  0  0  0  0  0
  1  7 1.00  0  0  0  0
  1  8 1.00  0  0  0  0
  1  2 1.00  0  0  0  0
  2  6 1.00  0  0  0  0
  2  3 1.00  0  0  0  0
  2  9 1.00  0  0  0  0
  3  4 2.00  0  0  0  0
  3  5 1.00  0  0  0  0
  5 10 1.00  0  0  0  0
  6 11 1.00  0  0  0  0
  6 12 1.00  0  0  0  0
  6 13 1.00  0  0  0  0
M  END

