arginine
 OpenBabel06142306093D

 27 26  0     0  0  0  0  0  0999 V2000
    0.7395    1.9751   -1.0900 N   0  0  0  0  0  0  0  0  0  0  0  0
    2.2053    2.2178   -1.1074 C   0  0  0  0  0  0  0  0  0  0  0  0
    2.7675    1.8223   -2.4809 C   0  0  0  0  0  0  0  0  0  0  0  0
    3.9460    1.9665   -2.7970 O   0  0  0  0  0  0  0  0  0  0  0  0
    1.8141    1.3348   -3.3057 O   0  0  0  0  0  0  0  0  0  0  0  0
    2.8797    1.4583    0.0445 C   0  0  0  0  0  0  0  0  0  0  0  0
    4.4091    1.5514    0.1096 C   0  0  0  0  0  0  0  0  0  0  0  0
    4.9391    2.9762    0.1843 C   0  0  0  0  0  0  0  0  0  0  0  0
    6.4076    2.9996    0.1327 N   0  0  0  0  0  0  0  0  0  0  0  0
    7.1332    3.0609   -0.9935 C   0  0  0  0  0  0  0  0  0  0  0  0
    6.5843    3.0119   -2.2090 N   0  0  0  0  0  0  0  0  0  0  0  0
    8.4633    3.1833   -0.8953 N   0  0  0  0  0  0  0  0  0  0  0  0
    0.3298    2.5637   -0.3554 H   0  0  0  0  0  0  0  0  0  0  0  0
    0.5490    1.0214   -0.7613 H   0  0  0  0  0  0  0  0  0  0  0  0
    2.3571    3.2985   -1.0208 H   0  0  0  0  0  0  0  0  0  0  0  0
    0.9484    1.4342   -2.8336 H   0  0  0  0  0  0  0  0  0  0  0  0
    2.6203    0.3928   -0.0154 H   0  0  0  0  0  0  0  0  0  0  0  0
    2.4701    1.8255    0.9944 H   0  0  0  0  0  0  0  0  0  0  0  0
    4.8586    1.0219   -0.7377 H   0  0  0  0  0  0  0  0  0  0  0  0
    4.7526    1.0029    0.9961 H   0  0  0  0  0  0  0  0  0  0  0  0
    4.6413    3.4379    1.1328 H   0  0  0  0  0  0  0  0  0  0  0  0
    4.5566    3.6262   -0.6078 H   0  0  0  0  0  0  0  0  0  0  0  0
    6.9046    3.0797    1.0125 H   0  0  0  0  0  0  0  0  0  0  0  0
    5.6001    2.7781   -2.3593 H   0  0  0  0  0  0  0  0  0  0  0  0
    7.1346    3.1108   -3.0499 H   0  0  0  0  0  0  0  0  0  0  0  0
    8.9359    3.1980   -0.0001 H   0  0  0  0  0  0  0  0  0  0  0  0
    9.0448    3.2402   -1.7204 H   0  0  0  0  0  0  0  0  0  0  0  0
  1 13 1.00  0  0  0  0
  1 14 1.00  0  0  0  0
  1  2 1.00  0  0  0  0
  2  6 1.00  0  0  0  0
  2  3 1.00  0  0  0  0
  2 15 1.00  0  0  0  0
  3  4 2.00  0  0  0  0
  3  5 1.00  0  0  0  0
  5 16 1.00  0  0  0  0
  6  7 1.00  0  0  0  0
  6 17 1.00  0  0  0  0
  6 18 1.00  0  0  0  0
  7  8 1.00  0  0  0  0
  7 19 1.00  0  0  0  0
  7 20 1.00  0  0  0  0
  8  9 1.00  0  0  0  0
  8 21 1.00  0  0  0  0
  8 22 1.00  0  0  0  0
  9 10 1.00  0  0  0  0
  9 23 1.00  0  0  0  0
 10 11 1.00  0  0  0  0
 10 12 2.00  0  0  0  0
 11 24 1.00  0  0  0  0
 11 25 1.00  0  0  0  0
 12 26 1.00  0  0  0  0
 12 27 1.00  0  0  0  0
M  CHG  3  12  1  26  1  27  1  
M  END

