arginine
 OpenBabel07232223113D

 27 26  0     0  0  0  0  0  0999 V2000
    1.0460    0.1256   -0.0804 N   0  0  0  0  0  0  0  0  0  0  0  0
    2.5299    0.0321    0.0091 C   0  0  0  0  0  0  0  0  0  0  0  0
    2.8936   -1.4686    0.0733 C   0  0  0  0  0  0  0  0  0  0  0  0
    3.9237   -1.9338    0.5362 O   0  0  0  0  0  0  0  0  0  0  0  0
    1.9140   -2.2321   -0.4729 O   0  0  0  0  0  0  0  0  0  0  0  0
    3.0435    0.8279    1.2194 C   0  0  0  0  0  0  0  0  0  0  0  0
    4.5733    0.9349    1.2662 C   0  0  0  0  0  0  0  0  0  0  0  0
    5.0541    1.7480    2.4633 C   0  0  0  0  0  0  0  0  0  0  0  0
    6.5244    1.7166    2.5584 N   0  0  0  0  0  0  0  0  0  0  0  0
    7.2502    0.7855    3.1997 C   0  0  0  0  0  0  0  0  0  0  0  0
    6.6913   -0.2576    3.8165 N   0  0  0  0  0  0  0  0  0  0  0  0
    8.5822    0.9027    3.2301 N   0  0  0  0  0  0  0  0  0  0  0  0
    0.7821    1.0978   -0.2612 H   0  0  0  0  0  0  0  0  0  0  0  0
    0.6380   -0.0848    0.8369 H   0  0  0  0  0  0  0  0  0  0  0  0
    2.9496    0.4283   -0.9225 H   0  0  0  0  0  0  0  0  0  0  0  0
    1.1822   -1.6164   -0.7298 H   0  0  0  0  0  0  0  0  0  0  0  0
    2.6847    0.3688    2.1480 H   0  0  0  0  0  0  0  0  0  0  0  0
    2.6289    1.8449    1.1825 H   0  0  0  0  0  0  0  0  0  0  0  0
    4.9455    1.3948    0.3431 H   0  0  0  0  0  0  0  0  0  0  0  0
    5.0328   -0.0524    1.3252 H   0  0  0  0  0  0  0  0  0  0  0  0
    4.6257    1.3935    3.4060 H   0  0  0  0  0  0  0  0  0  0  0  0
    4.7584    2.7958    2.3563 H   0  0  0  0  0  0  0  0  0  0  0  0
    7.0305    2.4987    2.1608 H   0  0  0  0  0  0  0  0  0  0  0  0
    5.6958   -0.4297    3.7722 H   0  0  0  0  0  0  0  0  0  0  0  0
    7.2465   -0.9478    4.3044 H   0  0  0  0  0  0  0  0  0  0  0  0
    9.0651    1.6556    2.7570 H   0  0  0  0  0  0  0  0  0  0  0  0
    9.1588    0.2189    3.7039 H   0  0  0  0  0  0  0  0  0  0  0  0
  1  2 1.00  0  0  0  0
  2  3 1.00  0  0  0  0
  3  4 2.00  0  0  0  0
  3  5 1.00  0  0  0  0
  5 16 1.00  0  0  0  0
  6  2 1.00  0  0  0  0
  6  7 1.00  0  0  0  0
  6 17 1.00  0  0  0  0
  6 18 1.00  0  0  0  0
  7  8 1.00  0  0  0  0
  7 19 1.00  0  0  0  0
  7 20 1.00  0  0  0  0
  8  9 1.00  0  0  0  0
  8 21 1.00  0  0  0  0
  8 22 1.00  0  0  0  0
  9 10 1.00  0  0  0  0
  9 23 1.00  0  0  0  0
 10 11 1.00  0  0  0  0
 10 12 2.00  0  0  0  0
 11 24 1.00  0  0  0  0
 11 25 1.00  0  0  0  0
 12 26 1.00  0  0  0  0
 12 27 1.00  0  0  0  0
 13  1 1.00  0  0  0  0
 14  1 1.00  0  0  0  0
 15  2 1.00  0  0  0  0
M  CHG  3  12  1  26  1  27  1  
M  END

