arginine
  primarydock-2307120108423D
https://github.com/primaryodors/primarydock
 27 26  0     0  0  0  0  0  0999 V2000
   -2.8917    1.6021   -0.3339 N   0  0  0  0  0  0  0  0  0  0  0  0
   -2.2988    0.3560   -0.8131 C   0  0  0  0  0  0  0  0  0  0  0  0
   -2.7459   -0.7207    0.1586 C   0  0  0  0  0  0  0  0  0  0  0  0
   -2.3027   -1.9535   -0.2040 O   0  0  0  0  0  0  0  0  0  0  0  0
   -3.4436   -0.5315    1.1465 O   0  0  0  0  0  0  0  0  0  0  0  0
   -0.7698    0.4929   -0.8697 C   0  0  0  0  0  0  0  0  0  0  0  0
   -0.1713    0.8748    0.4921 C   0  0  0  0  0  0  0  0  0  0  0  0
    1.3447    1.0326    0.4373 C   0  0  0  0  0  0  0  0  0  0  0  0
    1.9642   -0.2357    0.0497 N   0  0  0  0  0  0  0  0  0  0  0  0
    3.2599   -0.2630    0.0056 C   0  0  0  0  0  0  0  0  0  0  0  0
    3.9181   -1.4167   -0.3497 N   0  0  0  0  0  0  0  0  0  0  0  0
    4.1368    0.7627    0.2805 N   0  0  0  0  0  0  0  0  0  0  0  0
   -3.9080    1.5421   -0.3876 H   0  0  0  0  0  0  0  0  0  0  0  0
   -2.6212    2.3685   -0.9492 H   0  0  0  0  0  0  0  0  0  0  0  0
   -2.7019    0.1202   -1.8038 H   0  0  0  0  0  0  0  0  0  0  0  0
   -0.3371   -0.4537   -1.2146 H   0  0  0  0  0  0  0  0  0  0  0  0
   -0.4987    1.2540   -1.6125 H   0  0  0  0  0  0  0  0  0  0  0  0
   -0.5946    1.8211    0.8474 H   0  0  0  0  0  0  0  0  0  0  0  0
   -0.4186    0.1088    1.2369 H   0  0  0  0  0  0  0  0  0  0  0  0
    1.6008    1.8203   -0.2817 H   0  0  0  0  0  0  0  0  0  0  0  0
    1.6949    1.3401    1.4301 H   0  0  0  0  0  0  0  0  0  0  0  0
    3.4065   -2.2611   -0.5818 H   0  0  0  0  0  0  0  0  0  0  0  0
    4.9305   -1.4589   -0.3900 H   0  0  0  0  0  0  0  0  0  0  0  0
    5.1395    0.6251    0.2127 H   0  0  0  0  0  0  0  0  0  0  0  0
    3.8208    1.6857    0.5561 H   0  0  0  0  0  0  0  0  0  0  0  0
   -4.2940   -0.0731    1.0591 H   0  0  0  0  0  0  0  0  0  0  0  0
    1.4389   -1.0563   -0.1753 H   0  0  0  0  0  0  0  0  0  0  0  0
  1 13 1.00  0  0  0  0
  1 14 1.00  0  0  0  0
  1  2 1.00  0  0  0  0
  2  6 1.00  0  0  0  0
  2  3 1.00  0  0  0  0
  2 15 1.00  0  0  0  0
  3  4 2.00  0  0  0  0
  3  5 1.00  0  0  0  0
  5 26 1.00  0  0  0  0
  6  7 1.00  0  0  0  0
  6 16 1.00  0  0  0  0
  6 17 1.00  0  0  0  0
  7  8 1.00  0  0  0  0
  7 18 1.00  0  0  0  0
  7 19 1.00  0  0  0  0
  8  9 1.00  0  0  0  0
  8 20 1.00  0  0  0  0
  8 21 1.00  0  0  0  0
  9 10 1.50  0  0  0  0
  9 27 1.00  0  0  0  0
 10 11 1.00  0  0  0  0
 10 12 2.00  0  0  0  0
 11 22 1.00  0  0  0  0
 11 23 1.00  0  0  0  0
 12 24 1.00  0  0  0  0
 12 25 1.00  0  0  0  0
M  CHG  5  12  1  24  1  25  1  
M  END

