aspartic_acid
 OpenBabel06142306093D

 15 14  0     0  0  0  0  0  0999 V2000
    2.6781   -1.3791    0.5672 N   0  0  0  0  0  0  0  0  0  0  0  0
    2.3418   -0.0279   -0.0137 C   0  0  0  0  0  0  0  0  0  0  0  0
    0.8039    0.0749   -0.0285 C   0  0  0  0  0  0  0  0  0  0  0  0
    0.1232    0.8805   -0.6426 O   0  0  0  0  0  0  0  0  0  0  0  0
    0.2650   -0.8654    0.8049 O   0  0  0  0  0  0  0  0  0  0  0  0
    2.9325    0.1797   -1.3990 C   0  0  0  0  0  0  0  0  0  0  0  0
    4.4571    0.1877   -1.3991 C   0  0  0  0  0  0  0  0  0  0  0  0
    5.0051   -0.5357   -0.5181 O   0  0  0  0  0  0  0  0  0  0  0  0
    4.9869    0.8914   -2.3009 O   0  0  0  0  0  0  0  0  0  0  0  0
    3.7213   -1.3161    0.6499 H   0  0  0  0  0  0  0  0  0  0  0  0
    2.6324   -2.0464   -0.2140 H   0  0  0  0  0  0  0  0  0  0  0  0
    2.7065    0.7306    0.6875 H   0  0  0  0  0  0  0  0  0  0  0  0
    1.0630   -1.3658    1.1293 H   0  0  0  0  0  0  0  0  0  0  0  0
    2.5837    1.1396   -1.7994 H   0  0  0  0  0  0  0  0  0  0  0  0
    2.5868   -0.5941   -2.0963 H   0  0  0  0  0  0  0  0  0  0  0  0
  1 10 1.00  0  0  0  0
  1 11 1.00  0  0  0  0
  2  6 1.00  0  0  0  0
  2  3 1.00  0  0  0  0
  2  1 1.00  0  0  0  0
  2 12 1.00  0  0  0  0
  3  4 2.00  0  0  0  0
  3  5 1.00  0  0  0  0
  5 13 1.00  0  0  0  0
  6  7 1.00  0  0  0  0
  6 14 1.00  0  0  0  0
  6 15 1.00  0  0  0  0
  7  8 2.00  0  0  0  0
  7  9 1.00  0  0  0  0
M  CHG  1  9  -1  
M  END

