asparagine
 OpenBabel06142306093D

 17 16  0     0  0  0  0  0  0999 V2000
    2.7411   -0.4945   -1.3557 N   0  0  0  0  0  0  0  0  0  0  0  0
    2.3060    0.0360   -0.0210 C   0  0  0  0  0  0  0  0  0  0  0  0
    0.7658    0.0735   -0.0282 C   0  0  0  0  0  0  0  0  0  0  0  0
    0.0546    0.8366    0.6067 O   0  0  0  0  0  0  0  0  0  0  0  0
    0.2692   -0.8640   -0.8831 O   0  0  0  0  0  0  0  0  0  0  0  0
    2.8809    1.4283    0.2286 C   0  0  0  0  0  0  0  0  0  0  0  0
    2.6797    1.8487    1.6671 C   0  0  0  0  0  0  0  0  0  0  0  0
    2.5905    1.0657    2.6045 O   0  0  0  0  0  0  0  0  0  0  0  0
    2.7069    3.1974    1.8721 N   0  0  0  0  0  0  0  0  0  0  0  0
    3.7593   -0.6023   -1.3376 H   0  0  0  0  0  0  0  0  0  0  0  0
    2.5735    0.2319   -2.0604 H   0  0  0  0  0  0  0  0  0  0  0  0
    2.6185   -0.6844    0.7436 H   0  0  0  0  0  0  0  0  0  0  0  0
    1.0540   -1.2785   -1.3203 H   0  0  0  0  0  0  0  0  0  0  0  0
    2.4261    2.1675   -0.4427 H   0  0  0  0  0  0  0  0  0  0  0  0
    3.9628    1.4275    0.0538 H   0  0  0  0  0  0  0  0  0  0  0  0
    2.5959    3.8607    1.1181 H   0  0  0  0  0  0  0  0  0  0  0  0
    2.4811    3.5143    2.8071 H   0  0  0  0  0  0  0  0  0  0  0  0
  1 11 1.00  0  0  0  0
  1  2 1.00  0  0  0  0
  2  3 1.00  0  0  0  0
  2 12 1.00  0  0  0  0
  4  3 2.00  0  0  0  0
  5  3 1.00  0  0  0  0
  5 13 1.00  0  0  0  0
  6  2 1.00  0  0  0  0
  6  7 1.00  0  0  0  0
  6 14 1.00  0  0  0  0
  6 15 1.00  0  0  0  0
  7  8 2.00  0  0  0  0
  7  9 1.00  0  0  0  0
  9 16 1.00  0  0  0  0
  9 17 1.00  0  0  0  0
 10  1 1.00  0  0  0  0
M  CHG  4  8  -1  9  1  16  1  17  1  
M  END

