aspartic_acid
 OpenBabel07232223113D

 15 14  0     0  0  0  0  0  0999 V2000
    2.7561   -1.4602    0.3051 N   0  0  0  0  0  0  0  0  0  0  0  0
    2.3984   -0.0158    0.0636 C   0  0  0  0  0  0  0  0  0  0  0  0
    0.8580    0.0638    0.0692 C   0  0  0  0  0  0  0  0  0  0  0  0
    0.1637    0.9721   -0.3555 O   0  0  0  0  0  0  0  0  0  0  0  0
    0.3372   -1.0455    0.6750 O   0  0  0  0  0  0  0  0  0  0  0  0
    2.9862    0.5299   -1.2278 C   0  0  0  0  0  0  0  0  0  0  0  0
    4.5083    0.5646   -1.2187 C   0  0  0  0  0  0  0  0  0  0  0  0
    5.0715   -0.3429   -0.5412 O   0  0  0  0  0  0  0  0  0  0  0  0
    5.0263    1.4796   -1.9162 O   0  0  0  0  0  0  0  0  0  0  0  0
    3.7997   -1.4058    0.3910 H   0  0  0  0  0  0  0  0  0  0  0  0
    2.7050   -1.9255   -0.6097 H   0  0  0  0  0  0  0  0  0  0  0  0
    2.7474    0.5601    0.9289 H   0  0  0  0  0  0  0  0  0  0  0  0
    1.1430   -1.5948    0.8784 H   0  0  0  0  0  0  0  0  0  0  0  0
    2.6196    1.5529   -1.3853 H   0  0  0  0  0  0  0  0  0  0  0  0
    2.6536   -0.0562   -2.0924 H   0  0  0  0  0  0  0  0  0  0  0  0
  1 11 1.00  0  0  0  0
  2  6 1.00  0  0  0  0
  2  3 1.00  0  0  0  0
  2  1 1.00  0  0  0  0
  2 12 1.00  0  0  0  0
  3  4 2.00  0  0  0  0
  3  5 1.00  0  0  0  0
  5 13 1.00  0  0  0  0
  6  7 1.00  0  0  0  0
  6 14 1.00  0  0  0  0
  6 15 1.00  0  0  0  0
  7  8 2.00  0  0  0  0
  7  9 1.00  0  0  0  0
 10  1 1.00  0  0  0  0
M  CHG  1  9  -1  
M  END

