asparagine
 OpenBabel07232223113D

 17 16  0     0  0  0  0  0  0999 V2000
    2.8279   -1.5493   -0.1026 N   0  0  0  0  0  0  0  0  0  0  0  0
    2.4695   -0.0959   -0.0782 C   0  0  0  0  0  0  0  0  0  0  0  0
    0.9354    0.0020   -0.0784 C   0  0  0  0  0  0  0  0  0  0  0  0
    0.2838    0.9738   -0.4232 O   0  0  0  0  0  0  0  0  0  0  0  0
    0.3783   -1.1522    0.3764 O   0  0  0  0  0  0  0  0  0  0  0  0
    3.0488    0.7001   -1.2473 C   0  0  0  0  0  0  0  0  0  0  0  0
    4.5577    0.7432   -1.2187 C   0  0  0  0  0  0  0  0  0  0  0  0
    5.2502    0.1573   -0.3962 O   0  0  0  0  0  0  0  0  0  0  0  0
    5.1237    1.4704   -2.2245 N   0  0  0  0  0  0  0  0  0  0  0  0
    3.8462   -1.5898    0.0595 H   0  0  0  0  0  0  0  0  0  0  0  0
    2.7275   -1.8937   -1.0630 H   0  0  0  0  0  0  0  0  0  0  0  0
    2.8087    0.3163    0.8798 H   0  0  0  0  0  0  0  0  0  0  0  0
    1.1372   -1.7690    0.5418 H   0  0  0  0  0  0  0  0  0  0  0  0
    2.6885    1.7364   -1.2046 H   0  0  0  0  0  0  0  0  0  0  0  0
    2.7233    0.2799   -2.2065 H   0  0  0  0  0  0  0  0  0  0  0  0
    4.5878    1.9762   -2.9172 H   0  0  0  0  0  0  0  0  0  0  0  0
    6.1337    1.5307   -2.2539 H   0  0  0  0  0  0  0  0  0  0  0  0
  1 10 1.00  0  0  0  0
  1 11 1.00  0  0  0  0
  1  2 1.00  0  0  0  0
  2  6 1.00  0  0  0  0
  2  3 1.00  0  0  0  0
  2 12 1.00  0  0  0  0
  3  4 2.00  0  0  0  0
  3  5 1.00  0  0  0  0
  5 13 1.00  0  0  0  0
  6  7 1.00  0  0  0  0
  6 14 1.00  0  0  0  0
  6 15 1.00  0  0  0  0
  7  8 2.00  0  0  0  0
  7  9 1.00  0  0  0  0
  9 16 1.00  0  0  0  0
  9 17 1.00  0  0  0  0
M  END

