
 OpenBabel01052400593D

 12 12  0  0  0  0  0  0  0  0999 V2000
    1.3831   -0.2215    0.0052 C   0  0  0  0  0  0  0  0  0  0  0  0
    0.8813    1.0800    0.0138 C   0  0  0  0  0  0  0  0  0  0  0  0
   -0.4967    1.2964    0.0104 C   0  0  0  0  0  0  0  0  0  0  0  0
   -1.3728    0.2112   -0.0044 C   0  0  0  0  0  0  0  0  0  0  0  0
   -0.8709   -1.0902   -0.0144 C   0  0  0  0  0  0  0  0  0  0  0  0
    0.5069   -1.3065   -0.0081 C   0  0  0  0  0  0  0  0  0  0  0  0
    2.4567   -0.3900    0.0090 H   0  0  0  0  0  0  0  0  0  0  0  0
    1.5641    1.9254    0.0232 H   0  0  0  0  0  0  0  0  0  0  0  0
   -0.8875    2.3104    0.0192 H   0  0  0  0  0  0  0  0  0  0  0  0
   -2.4464    0.3797   -0.0083 H   0  0  0  0  0  0  0  0  0  0  0  0
   -1.5536   -1.9356   -0.0267 H   0  0  0  0  0  0  0  0  0  0  0  0
    0.8978   -2.3206   -0.0140 H   0  0  0  0  0  0  0  0  0  0  0  0
  1  2  2  0  0  0  0
  1  6  1  0  0  0  0
  1  7  1  0  0  0  0
  2  3  1  0  0  0  0
  2  8  1  0  0  0  0
  3  4  2  0  0  0  0
  3  9  1  0  0  0  0
  4  5  1  0  0  0  0
  4 10  1  0  0  0  0
  5  6  2  0  0  0  0
  5 11  1  0  0  0  0
  6 12  1  0  0  0  0
M  END
$$$$
