Benzene
  primarydock-2204091541493D
https://github.com/ssepeq/primarydock
 12 12  0     0  0  0  0  0  0999 V2000
    0.0000    0.0000    0.0000 C   0  0  0  0  0  0  0  0  0  0  0  0
   -1.2124   -0.7000   -0.0000 C   0  0  0  0  0  0  0  0  0  0  0  0
   -2.4249   -0.0000    0.0000 C   0  0  0  0  0  0  0  0  0  0  0  0
   -2.4249    1.4000    0.0000 C   0  0  0  0  0  0  0  0  0  0  0  0
   -1.2124    2.1000    0.0000 C   0  0  0  0  0  0  0  0  0  0  0  0
   -0.0000    1.4000    0.0000 C   0  0  0  0  0  0  0  0  0  0  0  0
    0.9440   -0.5450   -0.0000 H   0  0  0  0  0  0  0  0  0  0  0  0
   -1.2124   -1.7900   -0.0000 H   0  0  0  0  0  0  0  0  0  0  0  0
   -3.3688   -0.5450    0.0000 H   0  0  0  0  0  0  0  0  0  0  0  0
   -3.3688    1.9450    0.0000 H   0  0  0  0  0  0  0  0  0  0  0  0
   -1.2124    3.1900    0.0000 H   0  0  0  0  0  0  0  0  0  0  0  0
    0.9440    1.9450    0.0000 H   0  0  0  0  0  0  0  0  0  0  0  0
  1  2 1.50  0  0  0  0
  1  6 1.50  0  0  0  0
  1  7 1.00  0  0  0  0
  2  3 1.50  0  0  0  0
  2  8 1.00  0  0  0  0
  3  4 1.50  0  0  0  0
  3  9 1.00  0  0  0  0
  4  5 1.50  0  0  0  0
  4 10 1.00  0  0  0  0
  5  6 1.50  0  0  0  0
  5 11 1.00  0  0  0  0
  6 12 1.00  0  0  0  0
M  END
