
 OpenBabel02152213243D

 23 22  0  0  0  0  0  0  0  0999 V2000
    0.7865   -1.5969   -1.6005 N   0  3  0  0  0  0  0  0  0  0  0  0
    2.2647   -1.6598   -1.6952 C   0  0  0  0  0  0  0  0  0  0  0  0
    2.8695   -0.3203   -1.2886 C   0  0  0  0  0  0  0  0  0  0  0  0
    4.4041   -0.2758   -1.3905 C   0  0  0  0  0  0  0  0  0  0  0  0
    5.0006   -0.4731   -2.7936 C   0  0  0  0  0  0  0  0  0  0  0  0
    4.5989    0.6084   -3.7927 C   0  0  0  0  0  0  0  0  0  0  0  0
    5.1966    0.3181   -5.1177 N   0  3  0  0  0  0  0  0  0  0  0  0
    0.3532   -2.4879   -1.8802 H   0  0  0  0  0  0  0  0  0  0  0  0
    0.3667   -0.8630   -2.1878 H   0  0  0  0  0  0  0  0  0  0  0  0
    0.4718   -1.4316   -0.6335 H   0  0  0  0  0  0  0  0  0  0  0  0
    2.4942   -1.9108   -2.7331 H   0  0  0  0  0  0  0  0  0  0  0  0
    2.5934   -2.4720   -1.0401 H   0  0  0  0  0  0  0  0  0  0  0  0
    2.5964   -0.1101   -0.2454 H   0  0  0  0  0  0  0  0  0  0  0  0
    2.4381    0.4911   -1.8849 H   0  0  0  0  0  0  0  0  0  0  0  0
    4.8220   -1.0436   -0.7264 H   0  0  0  0  0  0  0  0  0  0  0  0
    4.7500    0.6884   -0.9951 H   0  0  0  0  0  0  0  0  0  0  0  0
    4.7282   -1.4643   -3.1740 H   0  0  0  0  0  0  0  0  0  0  0  0
    6.0945   -0.4749   -2.6974 H   0  0  0  0  0  0  0  0  0  0  0  0
    4.9545    1.5967   -3.4897 H   0  0  0  0  0  0  0  0  0  0  0  0
    3.5163    0.6378   -3.9440 H   0  0  0  0  0  0  0  0  0  0  0  0
    6.2278    0.3358   -5.0849 H   0  0  0  0  0  0  0  0  0  0  0  0
    4.9229    1.0241   -5.8150 H   0  0  0  0  0  0  0  0  0  0  0  0
    4.9232   -0.5992   -5.5000 H   0  0  0  0  0  0  0  0  0  0  0  0
  1  2  1  0  0  0  0
  1  8  1  0  0  0  0
  1  9  1  0  0  0  0
  1 10  1  0  0  0  0
  2  3  1  0  0  0  0
  2 11  1  0  0  0  0
  2 12  1  0  0  0  0
  3  4  1  0  0  0  0
  3 13  1  0  0  0  0
  3 14  1  0  0  0  0
  4  5  1  0  0  0  0
  4 15  1  0  0  0  0
  4 16  1  0  0  0  0
  5  6  1  0  0  0  0
  5 17  1  0  0  0  0
  5 18  1  0  0  0  0
  6  7  1  0  0  0  0
  6 19  1  0  0  0  0
  6 20  1  0  0  0  0
  7 21  1  0  0  0  0
  7 22  1  0  0  0  0
  7 23  1  0  0  0  0
M  CHG  2   1   1   7   1
M  END
$$$$