
 OpenBabel09032310343D

 18 18  0  0  0  0  0  0  0  0999 V2000
    1.3845   -0.1808    0.0424 C   0  0  0  0  0  0  0  0  0  0  0  0
    0.8351    1.0985    0.0167 C   0  0  0  0  0  0  0  0  0  0  0  0
   -0.5512    1.2637   -0.0473 C   0  0  0  0  0  0  0  0  0  0  0  0
   -1.4040    0.1524   -0.0999 C   0  0  0  0  0  0  0  0  0  0  0  0
   -0.8384   -1.1292   -0.0429 C   0  0  0  0  0  0  0  0  0  0  0  0
    0.5483   -1.2942    0.0198 C   0  0  0  0  0  0  0  0  0  0  0  0
   -2.8562    0.3797   -0.1813 C   0  0  0  0  0  0  0  0  0  0  0  0
   -3.7096   -0.4626   -0.7793 C   0  0  0  0  0  0  0  0  0  0  0  0
   -5.1468   -0.1348   -0.8591 C   0  0  0  0  0  0  0  0  0  0  0  0
   -5.9452   -0.8974   -1.3905 O   0  0  0  0  0  0  0  0  0  0  0  0
    2.4629   -0.3104    0.0837 H   0  0  0  0  0  0  0  0  0  0  0  0
    1.4853    1.9694    0.0420 H   0  0  0  0  0  0  0  0  0  0  0  0
   -0.9549    2.2736   -0.0712 H   0  0  0  0  0  0  0  0  0  0  0  0
   -1.4644   -2.0179   -0.0438 H   0  0  0  0  0  0  0  0  0  0  0  0
    0.9739   -2.2941    0.0501 H   0  0  0  0  0  0  0  0  0  0  0  0
   -3.2096    1.3135    0.2510 H   0  0  0  0  0  0  0  0  0  0  0  0
   -3.4158   -1.3941   -1.2479 H   0  0  0  0  0  0  0  0  0  0  0  0
   -5.4565    0.8287   -0.4226 H   0  0  0  0  0  0  0  0  0  0  0  0
  1  2  2  0  0  0  0
  1  6  1  0  0  0  0
  1 11  1  0  0  0  0
  2  3  1  0  0  0  0
  2 12  1  0  0  0  0
  3  4  2  0  0  0  0
  3 13  1  0  0  0  0
  4  5  1  0  0  0  0
  4  7  1  0  0  0  0
  5  6  2  0  0  0  0
  5 14  1  0  0  0  0
  6 15  1  0  0  0  0
  7  8  2  3  0  0  0
  7 16  1  0  0  0  0
  8  9  1  0  0  0  0
  8 17  1  0  0  0  0
  9 10  2  0  0  0  0
  9 18  1  0  0  0  0
M  END
$$$$
