
 OpenBabel10162220483D

 23 23  0  0  0  0  0  0  0  0999 V2000
    1.6759    1.0382    0.6036 C   0  0  0  0  0  0  0  0  0  0  0  0
    2.4275   -0.0727    0.1277 O   0  0  0  0  0  0  0  0  0  0  0  0
    3.0425    0.0951   -1.0827 C   0  0  0  0  0  0  0  0  0  0  0  0
    4.1561   -0.7182   -1.3022 C   0  0  0  0  0  0  0  0  0  0  0  0
    4.8679   -0.6441   -2.5005 C   0  0  0  0  0  0  0  0  0  0  0  0
    4.4688    0.2418   -3.5096 C   0  0  0  0  0  0  0  0  0  0  0  0
    5.2513    0.3432   -4.7980 C   0  0  0  0  0  0  0  0  0  0  0  0
    4.7934   -0.6206   -5.8561 C   0  0  0  0  0  0  0  0  0  0  0  0
    4.3944   -0.2589   -7.0844 C   0  0  0  0  0  0  0  0  0  0  0  0
    3.3296    1.0303   -3.2990 C   0  0  0  0  0  0  0  0  0  0  0  0
    2.6230    0.9612   -2.0915 C   0  0  0  0  0  0  0  0  0  0  0  0
    1.3150    0.7902    1.6069 H   0  0  0  0  0  0  0  0  0  0  0  0
    0.7982    1.2290   -0.0200 H   0  0  0  0  0  0  0  0  0  0  0  0
    2.3053    1.9302    0.6840 H   0  0  0  0  0  0  0  0  0  0  0  0
    4.4799   -1.4052   -0.5229 H   0  0  0  0  0  0  0  0  0  0  0  0
    5.7410   -1.2776   -2.6381 H   0  0  0  0  0  0  0  0  0  0  0  0
    6.3117    0.1519   -4.5885 H   0  0  0  0  0  0  0  0  0  0  0  0
    5.2075    1.3776   -5.1632 H   0  0  0  0  0  0  0  0  0  0  0  0
    4.8217   -1.6776   -5.6038 H   0  0  0  0  0  0  0  0  0  0  0  0
    4.3601    0.7815   -7.3899 H   0  0  0  0  0  0  0  0  0  0  0  0
    4.1007   -1.0058   -7.8135 H   0  0  0  0  0  0  0  0  0  0  0  0
    2.9848    1.7084   -4.0766 H   0  0  0  0  0  0  0  0  0  0  0  0
    1.7423    1.5840   -1.9785 H   0  0  0  0  0  0  0  0  0  0  0  0
  1  2  1  0  0  0  0
  1 12  1  0  0  0  0
  1 13  1  0  0  0  0
  1 14  1  0  0  0  0
  2  3  1  0  0  0  0
  3  4  1  0  0  0  0
  3 11  2  0  0  0  0
  4  5  2  0  0  0  0
  4 15  1  0  0  0  0
  5  6  1  0  0  0  0
  5 16  1  0  0  0  0
  6  7  1  0  0  0  0
  6 10  2  0  0  0  0
  7  8  1  0  0  0  0
  7 17  1  0  0  0  0
  7 18  1  0  0  0  0
  8  9  2  0  0  0  0
  8 19  1  0  0  0  0
  9 20  1  0  0  0  0
  9 21  1  0  0  0  0
 10 11  1  0  0  0  0
 10 22  1  0  0  0  0
 11 23  1  0  0  0  0
M  END
$$$$
