105513
  -OEChem-03282223193D

 32 32  0     0  0  0  0  0  0999 V2000
    2.1585   -2.2691   -0.2856 O   0  0  0  0  0  0  0  0  0  0  0  0
    2.6068    0.1269   -0.1372 C   0  0  0  0  0  0  0  0  0  0  0  0
    1.6345    1.0974    0.5804 C   0  0  0  0  0  0  0  0  0  0  0  0
    0.1621    0.7887    0.4291 C   0  0  0  0  0  0  0  0  0  0  0  0
    2.4363    0.1511   -1.6625 C   0  0  0  0  0  0  0  0  0  0  0  0
    4.0508    0.5342    0.2047 C   0  0  0  0  0  0  0  0  0  0  0  0
    2.4144   -1.2870    0.4041 C   0  0  0  0  0  0  0  0  0  0  0  0
   -0.4548   -0.0390    1.3520 C   0  0  0  0  0  0  0  0  0  0  0  0
   -0.5394    1.3406   -0.6297 C   0  0  0  0  0  0  0  0  0  0  0  0
   -2.5346    0.2239    0.1513 C   0  0  0  0  0  0  0  0  0  0  0  0
   -1.8131   -0.3237    1.2120 C   0  0  0  0  0  0  0  0  0  0  0  0
   -1.8979    1.0560   -0.7695 C   0  0  0  0  0  0  0  0  0  0  0  0
   -3.9870   -0.0796    0.0023 C   0  0  0  0  0  0  0  0  0  0  0  0
   -4.2366   -1.3203   -0.8513 C   0  0  0  0  0  0  0  0  0  0  0  0
    1.8170    2.1239    0.2323 H   0  0  0  0  0  0  0  0  0  0  0  0
    1.8660    1.1219    1.6552 H   0  0  0  0  0  0  0  0  0  0  0  0
    3.1993   -0.4644   -2.1540 H   0  0  0  0  0  0  0  0  0  0  0  0
    2.5270    1.1696   -2.0554 H   0  0  0  0  0  0  0  0  0  0  0  0
    1.4652   -0.2497   -1.9715 H   0  0  0  0  0  0  0  0  0  0  0  0
    4.2254    0.5177    1.2869 H   0  0  0  0  0  0  0  0  0  0  0  0
    4.7745   -0.1540   -0.2478 H   0  0  0  0  0  0  0  0  0  0  0  0
    4.2739    1.5442   -0.1567 H   0  0  0  0  0  0  0  0  0  0  0  0
    2.5318   -1.3955    1.4974 H   0  0  0  0  0  0  0  0  0  0  0  0
    0.0956   -0.4681    2.1841 H   0  0  0  0  0  0  0  0  0  0  0  0
   -0.0538    1.9914   -1.3510 H   0  0  0  0  0  0  0  0  0  0  0  0
   -2.2973   -0.9741    1.9356 H   0  0  0  0  0  0  0  0  0  0  0  0
   -2.4486    1.4878   -1.6010 H   0  0  0  0  0  0  0  0  0  0  0  0
   -4.4436   -0.2199    0.9901 H   0  0  0  0  0  0  0  0  0  0  0  0
   -4.5051    0.7788   -0.4433 H   0  0  0  0  0  0  0  0  0  0  0  0
   -3.8312   -1.1945   -1.8610 H   0  0  0  0  0  0  0  0  0  0  0  0
   -5.3111   -1.5099   -0.9372 H   0  0  0  0  0  0  0  0  0  0  0  0
   -3.7688   -2.2062   -0.4086 H   0  0  0  0  0  0  0  0  0  0  0  0
  1  7  2  0  0  0  0
  2  3  1  0  0  0  0
  2  5  1  0  0  0  0
  2  6  1  0  0  0  0
  2  7  1  0  0  0  0
  3  4  1  0  0  0  0
  3 15  1  0  0  0  0
  3 16  1  0  0  0  0
  4  8  2  0  0  0  0
  4  9  1  0  0  0  0
  5 17  1  0  0  0  0
  5 18  1  0  0  0  0
  5 19  1  0  0  0  0
  6 20  1  0  0  0  0
  6 21  1  0  0  0  0
  6 22  1  0  0  0  0
  7 23  1  0  0  0  0
  8 11  1  0  0  0  0
  8 24  1  0  0  0  0
  9 12  2  0  0  0  0
  9 25  1  0  0  0  0
 10 11  2  0  0  0  0
 10 12  1  0  0  0  0
 10 13  1  0  0  0  0
 11 26  1  0  0  0  0
 12 27  1  0  0  0  0
 13 14  1  0  0  0  0
 13 28  1  0  0  0  0
 13 29  1  0  0  0  0
 14 30  1  0  0  0  0
 14 31  1  0  0  0  0
 14 32  1  0  0  0  0
M  END
> <PUBCHEM_COMPOUND_CID>
105513

> <PUBCHEM_CONFORMER_RMSD>
0.6

> <PUBCHEM_CONFORMER_DIVERSEORDER>
1
10
7
6
12
8
3
11
2
13
9
4
5

> <PUBCHEM_MMFF94_PARTIAL_CHARGES>
16
1 -0.57
10 -0.14
11 -0.15
12 -0.15
13 0.14
2 0.06
23 0.06
24 0.15
25 0.15
26 0.15
27 0.15
3 0.14
4 -0.14
7 0.45
8 -0.15
9 -0.15

> <PUBCHEM_EFFECTIVE_ROTOR_COUNT>
4

> <PUBCHEM_PHARMACOPHORE_FEATURES>
4
1 1 acceptor
1 14 hydrophobe
3 2 5 6 hydrophobe
6 4 8 9 10 11 12 rings

> <PUBCHEM_HEAVY_ATOM_COUNT>
14

> <PUBCHEM_ATOM_DEF_STEREO_COUNT>
0

> <PUBCHEM_ATOM_UDEF_STEREO_COUNT>
0

> <PUBCHEM_BOND_DEF_STEREO_COUNT>
0

> <PUBCHEM_BOND_UDEF_STEREO_COUNT>
0

> <PUBCHEM_ISOTOPIC_ATOM_COUNT>
0

> <PUBCHEM_COMPONENT_COUNT>
1

> <PUBCHEM_CACTVS_TAUTO_COUNT>
1

> <PUBCHEM_CONFORMER_ID>
00019C2900000001

> <PUBCHEM_MMFF94_ENERGY>
34.1529

> <PUBCHEM_FEATURE_SELFOVERLAP>
20.297

> <PUBCHEM_SHAPE_FINGERPRINT>
11769659 78 18130781274675447999
11796584 16 17632010957861648511
12251169 10 12751237008285358265
12644460 14 15194434420545700043
12670546 177 17168987953671549815
12932764 1 18271817786800934985
13296908 3 17703514294089341580
13705890 14 18334290985308341851
13760787 19 17989490727623620873
14251717 144 18412261757017394666
14252887 29 17203336632092177756
14911166 2 17313095393652478313
15207287 21 18187642531179848034
15375358 24 17967813881261573736
15375462 189 17560790052578482206
15757776 16 18342174475163570054
15775835 57 18342176674160464998
16945 1 18261690240926563584
18186145 218 16153713106880512197
18522851 268 18188768336280944559
200 152 18342455949918650320
20201158 50 18259707795928977216
20233049 118 14201386197020598182
20279233 1 18261396662863680312
20281407 28 18341895186425394341
20645476 183 14996280357646719593
20645477 70 18340200791688732327
21119208 17 15357691998333453616
21501502 16 18263366880300293472
22169311 14 10879989176890232453
22485316 2 18343016688306759989
23402539 116 17676476242389816860
23402655 69 18260259716622952549
23557571 272 18040710334041974804
23559900 14 17313105289547525680
3248919 1 17676780802720804312
4990 188 17749387079431975043
581208 293 18411418431836007504
76465 3 18337941320773396915
81228 2 17895762781162125397
9709674 26 18187651271237964970

> <PUBCHEM_SHAPE_MULTIPOLES>
282.24
7.07
1.5
1.24
2.53
0.6
-0.1
1.75
-1.4
-0.41
-0.23
-0.02
0.01
-0.07

> <PUBCHEM_SHAPE_SELFOVERLAP>
572.787

> <PUBCHEM_SHAPE_VOLUME>
166

> <PUBCHEM_COORDINATE_TYPE>
2
5
10

$$$$
