glutamic_acid
 OpenBabel06142306093D

 18 17  0     0  0  0  0  0  0999 V2000
    2.7420   -0.4745    1.4519 N   0  0  0  0  0  0  0  0  0  0  0  0
    2.3444   -0.1483    0.0361 C   0  0  0  0  0  0  0  0  0  0  0  0
    0.8027   -0.1375   -0.0287 C   0  0  0  0  0  0  0  0  0  0  0  0
    0.1160   -0.0048   -1.0285 O   0  0  0  0  0  0  0  0  0  0  0  0
    0.2716   -0.2968    1.2185 O   0  0  0  0  0  0  0  0  0  0  0  0
    2.9143   -1.1688   -0.9594 C   0  0  0  0  0  0  0  0  0  0  0  0
    4.4304   -1.3556   -0.9018 C   0  0  0  0  0  0  0  0  0  0  0  0
    5.1218   -0.0155   -1.1207 C   0  0  0  0  0  0  0  0  0  0  0  0
    5.3886    0.2672   -2.3203 O   0  0  0  0  0  0  0  0  0  0  0  0
    5.3119    0.6418   -0.0597 O   0  0  0  0  0  0  0  0  0  0  0  0
    3.6819   -0.0389    1.5342 H   0  0  0  0  0  0  0  0  0  0  0  0
    2.9767   -1.4715    1.4789 H   0  0  0  0  0  0  0  0  0  0  0  0
    2.6689    0.8745   -0.1819 H   0  0  0  0  0  0  0  0  0  0  0  0
    1.0748   -0.3528    1.8026 H   0  0  0  0  0  0  0  0  0  0  0  0
    2.6273   -0.8661   -1.9746 H   0  0  0  0  0  0  0  0  0  0  0  0
    2.4412   -2.1457   -0.7928 H   0  0  0  0  0  0  0  0  0  0  0  0
    4.7470   -2.0690   -1.6706 H   0  0  0  0  0  0  0  0  0  0  0  0
    4.7455   -1.7743    0.0612 H   0  0  0  0  0  0  0  0  0  0  0  0
  1 11 1.00  0  0  0  0
  1 12 1.00  0  0  0  0
  1  2 1.00  0  0  0  0
  2  3 1.00  0  0  0  0
  2 13 1.00  0  0  0  0
  4  3 2.00  0  0  0  0
  5  3 1.00  0  0  0  0
  5 14 1.00  0  0  0  0
  6  2 1.00  0  0  0  0
  6  7 1.00  0  0  0  0
  6 15 1.00  0  0  0  0
  6 16 1.00  0  0  0  0
  7  8 1.00  0  0  0  0
  7 17 1.00  0  0  0  0
  7 18 1.00  0  0  0  0
  8  9 2.00  0  0  0  0
  8 10 1.00  0  0  0  0
M  CHG  1  10  -1  
M  END

