glutamine
 OpenBabel07232223113D

 20 19  0     0  0  0  0  0  0999 V2000
    0.9040   -0.0088   -0.1028 N   0  0  0  0  0  0  0  0  0  0  0  0
    2.4040   -0.0711   -0.0759 C   0  0  0  0  0  0  0  0  0  0  0  0
    2.8146   -1.3536    0.6784 C   0  0  0  0  0  0  0  0  0  0  0  0
    3.9575   -1.6859    0.9450 O   0  0  0  0  0  0  0  0  0  0  0  0
    1.7272   -2.0999    1.0060 O   0  0  0  0  0  0  0  0  0  0  0  0
    2.9524    1.2026    0.5842 C   0  0  0  0  0  0  0  0  0  0  0  0
    4.4794    1.2950    0.6284 C   0  0  0  0  0  0  0  0  0  0  0  0
    5.1003    1.2305   -0.7471 C   0  0  0  0  0  0  0  0  0  0  0  0
    4.5444    1.6295   -1.7631 O   0  0  0  0  0  0  0  0  0  0  0  0
    6.3662    0.7287   -0.7796 N   0  0  0  0  0  0  0  0  0  0  0  0
    0.6494    0.6160   -0.8764 H   0  0  0  0  0  0  0  0  0  0  0  0
    0.5831    0.4986    0.7291 H   0  0  0  0  0  0  0  0  0  0  0  0
    2.7424   -0.1871   -1.1099 H   0  0  0  0  0  0  0  0  0  0  0  0
    0.9543   -1.6201    0.6135 H   0  0  0  0  0  0  0  0  0  0  0  0
    2.5817    1.2748    1.6150 H   0  0  0  0  0  0  0  0  0  0  0  0
    2.5622    2.0784    0.0483 H   0  0  0  0  0  0  0  0  0  0  0  0
    4.9002    0.5190    1.2748 H   0  0  0  0  0  0  0  0  0  0  0  0
    4.7668    2.2572    1.0701 H   0  0  0  0  0  0  0  0  0  0  0  0
    6.7177    0.1520   -0.0251 H   0  0  0  0  0  0  0  0  0  0  0  0
    6.7748    0.5901   -1.6951 H   0  0  0  0  0  0  0  0  0  0  0  0
  1 11 1.00  0  0  0  0
  1 12 1.00  0  0  0  0
  1  2 1.00  0  0  0  0
  2  6 1.00  0  0  0  0
  2  3 1.00  0  0  0  0
  2 13 1.00  0  0  0  0
  3  4 2.00  0  0  0  0
  3  5 1.00  0  0  0  0
  5 14 1.00  0  0  0  0
  6  7 1.00  0  0  0  0
  6 15 1.00  0  0  0  0
  6 16 1.00  0  0  0  0
  7  8 1.00  0  0  0  0
  7 17 1.00  0  0  0  0
  7 18 1.00  0  0  0  0
  8  9 2.00  0  0  0  0
  8 10 1.00  0  0  0  0
 10 19 1.00  0  0  0  0
 10 20 1.00  0  0  0  0
M  END

