glutamic_acid
 OpenBabel07232223113D

 18 17  0     0  0  0  0  0  0999 V2000
    2.7091    1.4951   -0.3756 N   0  0  0  0  0  0  0  0  0  0  0  0
    2.3638    0.0747   -0.0673 C   0  0  0  0  0  0  0  0  0  0  0  0
    0.8189   -0.0014   -0.0629 C   0  0  0  0  0  0  0  0  0  0  0  0
    0.1290   -0.8952    0.4067 O   0  0  0  0  0  0  0  0  0  0  0  0
    0.2921    1.0730   -0.7199 O   0  0  0  0  0  0  0  0  0  0  0  0
    2.9464   -0.4613    1.2499 C   0  0  0  0  0  0  0  0  0  0  0  0
    4.4721   -0.5764    1.2992 C   0  0  0  0  0  0  0  0  0  0  0  0
    5.1366    0.7893    1.2258 C   0  0  0  0  0  0  0  0  0  0  0  0
    5.4014    1.1811    0.0538 O   0  0  0  0  0  0  0  0  0  0  0  0
    5.2560    1.3970    2.3248 O   0  0  0  0  0  0  0  0  0  0  0  0
    3.7413    1.5006   -0.5617 H   0  0  0  0  0  0  0  0  0  0  0  0
    2.7090    2.0126    0.5159 H   0  0  0  0  0  0  0  0  0  0  0  0
    2.7000   -0.5432   -0.9082 H   0  0  0  0  0  0  0  0  0  0  0  0
    1.0949    1.6227   -0.9405 H   0  0  0  0  0  0  0  0  0  0  0  0
    2.5436   -1.4688    1.4188 H   0  0  0  0  0  0  0  0  0  0  0  0
    2.5896    0.1468    2.0921 H   0  0  0  0  0  0  0  0  0  0  0  0
    4.8382   -1.2154    0.4861 H   0  0  0  0  0  0  0  0  0  0  0  0
    4.7688   -1.0586    2.2384 H   0  0  0  0  0  0  0  0  0  0  0  0
  1 11 1.00  0  0  0  0
  1 12 1.00  0  0  0  0
  2  6 1.00  0  0  0  0
  2  3 1.00  0  0  0  0
  2  1 1.00  0  0  0  0
  2 13 1.00  0  0  0  0
  3  4 2.00  0  0  0  0
  3  5 1.00  0  0  0  0
  5 14 1.00  0  0  0  0
  6  7 1.00  0  0  0  0
  6 15 1.00  0  0  0  0
  6 16 1.00  0  0  0  0
  7  8 1.00  0  0  0  0
  7 17 1.00  0  0  0  0
  7 18 1.00  0  0  0  0
  8  9 2.00  0  0  0  0
  8 10 1.00  0  0  0  0
M  CHG  1  10  -1  
M  END

