glycine
 OpenBabel06142306093D

 10 9  0     0  0  0  0  0  0999 V2000
    1.1108   -0.0688    0.0743 N   0  0  0  0  0  0  0  0  0  0  0  0
    2.5871    0.0940    0.1131 C   0  0  0  0  0  0  0  0  0  0  0  0
    3.0835   -0.1885    1.5283 C   0  0  0  0  0  0  0  0  0  0  0  0
    4.1540    0.1815    1.9833 O   0  0  0  0  0  0  0  0  0  0  0  0
    2.1900   -0.9422    2.2210 O   0  0  0  0  0  0  0  0  0  0  0  0
    0.8119    0.0660   -0.8961 H   0  0  0  0  0  0  0  0  0  0  0  0
    0.6968    0.7273    0.5729 H   0  0  0  0  0  0  0  0  0  0  0  0
    2.8537    1.1137   -0.1753 H   0  0  0  0  0  0  0  0  0  0  0  0
    3.0511   -0.6287   -0.5640 H   0  0  0  0  0  0  0  0  0  0  0  0
    1.4226   -1.0836    1.6125 H   0  0  0  0  0  0  0  0  0  0  0  0
  1  2 1.00  0  0  0  0
  1  6 1.00  0  0  0  0
  1  7 1.00  0  0  0  0
  2  3 1.00  0  0  0  0
  2  8 1.00  0  0  0  0
  2  9 1.00  0  0  0  0
  3  4 2.00  0  0  0  0
  3  5 1.00  0  0  0  0
  5 10 1.00  0  0  0  0
M  END

