
 OpenBabel09032310383D

 16 17  0  0  0  0  0  0  0  0999 V2000
   -0.2484    0.6452   -0.0132 C   0  0  0  0  0  0  0  0  0  0  0  0
   -0.2389   -0.7496   -0.0067 C   0  0  0  0  0  0  0  0  0  0  0  0
   -1.5954   -1.1781   -0.0130 C   0  0  0  0  0  0  0  0  0  0  0  0
   -2.3904   -0.0551   -0.0256 C   0  0  0  0  0  0  0  0  0  0  0  0
   -1.5675    1.0404   -0.0168 N   0  0  0  0  0  0  0  0  0  0  0  0
    0.9998   -1.4192   -0.0006 C   0  0  0  0  0  0  0  0  0  0  0  0
    2.1829   -0.6708   -0.0094 C   0  0  0  0  0  0  0  0  0  0  0  0
    2.1429    0.7220   -0.0179 C   0  0  0  0  0  0  0  0  0  0  0  0
    0.9250    1.4091   -0.0160 C   0  0  0  0  0  0  0  0  0  0  0  0
   -1.9480   -2.2009   -0.0141 H   0  0  0  0  0  0  0  0  0  0  0  0
   -3.4658    0.0594   -0.0400 H   0  0  0  0  0  0  0  0  0  0  0  0
   -1.8763    2.0023   -0.0192 H   0  0  0  0  0  0  0  0  0  0  0  0
    1.0389   -2.5040    0.0063 H   0  0  0  0  0  0  0  0  0  0  0  0
    3.1412   -1.1839   -0.0110 H   0  0  0  0  0  0  0  0  0  0  0  0
    3.0736    1.2850   -0.0275 H   0  0  0  0  0  0  0  0  0  0  0  0
    0.8979    2.4934   -0.0212 H   0  0  0  0  0  0  0  0  0  0  0  0
  1  2  2  0  0  0  0
  1  5  1  0  0  0  0
  1  9  1  0  0  0  0
  2  3  1  0  0  0  0
  2  6  1  0  0  0  0
  3  4  2  0  0  0  0
  3 10  1  0  0  0  0
  4  5  1  0  0  0  0
  4 11  1  0  0  0  0
  5 12  1  0  0  0  0
  6  7  2  0  0  0  0
  6 13  1  0  0  0  0
  7  8  1  0  0  0  0
  7 14  1  0  0  0  0
  8  9  2  0  0  0  0
  8 15  1  0  0  0  0
  9 16  1  0  0  0  0
M  END
$$$$
