isoleucine
 OpenBabel06142306093D

 22 21  0     0  0  0  0  0  0999 V2000
    2.9048    2.2557   -1.7358 N   0  0  0  0  0  0  0  0  0  0  0  0
    2.5992    0.9790   -2.4132 C   0  0  0  0  0  0  0  0  0  0  0  0
    3.1816    0.9848   -3.8393 C   0  0  0  0  0  0  0  0  0  0  0  0
    4.0831    1.7229   -4.2136 O   0  0  0  0  0  0  0  0  0  0  0  0
    2.5897    0.0932   -4.6701 O   0  0  0  0  0  0  0  0  0  0  0  0
    3.0863   -0.2507   -1.6069 C   0  0  0  0  0  0  0  0  0  0  0  0
    2.4358   -0.3620   -0.2087 C   0  0  0  0  0  0  0  0  0  0  0  0
    0.9147   -0.3900   -0.2300 C   0  0  0  0  0  0  0  0  0  0  0  0
    4.6154   -0.2888   -1.4435 C   0  0  0  0  0  0  0  0  0  0  0  0
    2.5054    3.0195   -2.2851 H   0  0  0  0  0  0  0  0  0  0  0  0
    3.9147    2.4157   -1.8105 H   0  0  0  0  0  0  0  0  0  0  0  0
    1.5102    0.9448   -2.5324 H   0  0  0  0  0  0  0  0  0  0  0  0
    1.8615   -0.4113   -4.2600 H   0  0  0  0  0  0  0  0  0  0  0  0
    2.8087   -1.1523   -2.1703 H   0  0  0  0  0  0  0  0  0  0  0  0
    2.7833   -1.2877    0.2691 H   0  0  0  0  0  0  0  0  0  0  0  0
    2.7700    0.4610    0.4334 H   0  0  0  0  0  0  0  0  0  0  0  0
    0.5450   -1.2080   -0.8559 H   0  0  0  0  0  0  0  0  0  0  0  0
    0.4961    0.5497   -0.6024 H   0  0  0  0  0  0  0  0  0  0  0  0
    0.5285   -0.5357    0.7832 H   0  0  0  0  0  0  0  0  0  0  0  0
    4.9895    0.5834   -0.8970 H   0  0  0  0  0  0  0  0  0  0  0  0
    5.1190   -0.3265   -2.4142 H   0  0  0  0  0  0  0  0  0  0  0  0
    4.9214   -1.1815   -0.8863 H   0  0  0  0  0  0  0  0  0  0  0  0
  1  2 1.00  0  0  0  0
  2  3 1.00  0  0  0  0
  2  6 1.00  0  0  0  0
  3  4 2.00  0  0  0  0
  3  5 1.00  0  0  0  0
  6  7 1.00  0  0  0  0
  7 16 1.00  0  0  0  0
  8  7 1.00  0  0  0  0
  8 17 1.00  0  0  0  0
  8 18 1.00  0  0  0  0
  8 19 1.00  0  0  0  0
  9  6 1.00  0  0  0  0
  9 20 1.00  0  0  0  0
  9 21 1.00  0  0  0  0
  9 22 1.00  0  0  0  0
 10  1 1.00  0  0  0  0
 11  1 1.00  0  0  0  0
 12  2 1.00  0  0  0  0
 13  5 1.00  0  0  0  0
 14  6 1.00  0  0  0  0
 15  7 1.00  0  0  0  0
M  END

