
 OpenBabel09032310353D

 20 20  0  0  1  0  0  0  0  0999 V2000
    0.7079    1.1956   -0.1990 C   0  0  0  0  0  0  0  0  0  0  0  0
   -0.7534    1.2059    0.2486 C   0  0  1  0  0  0  0  0  0  0  0  0
   -1.4547   -0.0677   -0.2376 C   0  0  1  0  0  0  0  0  0  0  0  0
   -0.6849   -1.3224    0.2105 C   0  0  2  0  0  0  0  0  0  0  0  0
    0.8008   -1.1758   -0.1915 C   0  0  3  0  0  0  0  0  0  0  0  0
    1.3533    0.0318    0.3282 O   0  0  0  0  0  0  0  0  0  0  0  0
    1.5828   -2.2599    0.2904 O   0  0  0  0  0  0  0  0  0  0  0  0
   -1.2376   -2.5246   -0.3425 O   0  0  0  0  0  0  0  0  0  0  0  0
   -2.7950   -0.1050    0.2632 O   0  0  0  0  0  0  0  0  0  0  0  0
   -0.8283    1.2428    1.6851 O   0  0  0  0  0  0  0  0  0  0  0  0
    1.2315    2.0609    0.2151 H   0  0  0  0  0  0  0  0  0  0  0  0
    0.8065    1.2176   -1.2902 H   0  0  0  0  0  0  0  0  0  0  0  0
   -1.2727    2.0961   -0.1185 H   0  0  0  0  0  0  0  0  0  0  0  0
   -1.5335   -0.0558   -1.3311 H   0  0  0  0  0  0  0  0  0  0  0  0
   -0.7671   -1.4328    1.2990 H   0  0  0  0  0  0  0  0  0  0  0  0
    0.9010   -1.1852   -1.2833 H   0  0  0  0  0  0  0  0  0  0  0  0
    1.1211   -2.6301    1.0593 H   0  0  0  0  0  0  0  0  0  0  0  0
   -1.7510   -2.2955   -1.1360 H   0  0  0  0  0  0  0  0  0  0  0  0
   -2.7448    0.2029    1.1911 H   0  0  0  0  0  0  0  0  0  0  0  0
    0.0231    0.9074    2.0323 H   0  0  0  0  0  0  0  0  0  0  0  0
  1  2  1  0  0  0  0
  1  6  1  0  0  0  0
  1 11  1  0  0  0  0
  1 12  1  0  0  0  0
  2  3  1  0  0  0  0
  2 10  1  0  0  0  0
  2 13  1  6  0  0  0
  3  4  1  0  0  0  0
  3  9  1  0  0  0  0
  3 14  1  6  0  0  0
  4  5  1  0  0  0  0
  4  8  1  0  0  0  0
  4 15  1  1  0  0  0
  5  6  1  0  0  0  0
  5  7  1  0  0  0  0
  5 16  1  0  0  0  0
  7 17  1  0  0  0  0
  8 18  1  0  0  0  0
  9 19  1  0  0  0  0
 10 20  1  0  0  0  0
M  END
$$$$
