
 OpenBabel03062308583D

 38 37  0  0  0  0  0  0  0  0999 V2000
    1.4312   -1.3219   -0.9789 C   0  0  0  0  0  0  0  0  0  0  0  0
    2.3753   -0.3622   -0.2475 C   0  0  0  0  0  0  0  0  0  0  0  0
    1.6941    0.9856   -0.0506 C   0  0  0  0  0  0  0  0  0  0  0  0
    3.0041   -0.9623    1.0534 C   0  0  0  0  0  0  0  0  0  0  0  0
    2.3344   -1.3016    2.1169 N   0  0  0  0  0  0  0  0  0  0  0  0
    0.9571   -1.1612    2.0150 O   0  0  0  0  0  0  0  0  0  0  0  0
    4.5732   -1.1516    1.1513 C   0  0  0  0  0  0  0  0  0  0  0  0
    5.1722   -1.4921   -0.2224 C   0  0  0  0  0  0  0  0  0  0  0  0
    5.2254    0.1229    1.7244 C   0  0  0  0  0  0  0  0  0  0  0  0
    4.8569   -2.3490    2.1297 C   0  0  0  0  0  0  0  0  0  0  0  0
    6.3049   -2.7188    2.3723 C   0  0  0  0  0  0  0  0  0  0  0  0
    6.7293   -3.7238    3.1668 C   0  0  0  0  0  0  0  0  0  0  0  0
    5.7821   -4.6537    3.8868 C   0  0  0  0  0  0  0  0  0  0  0  0
    8.1603   -3.9190    3.3531 C   0  0  0  0  0  0  0  0  0  0  0  0
    8.7470   -4.8560    4.1088 C   0  0  0  0  0  0  0  0  0  0  0  0
    1.1392   -0.8948   -1.9513 H   0  0  0  0  0  0  0  0  0  0  0  0
    0.5067   -1.5067   -0.4228 H   0  0  0  0  0  0  0  0  0  0  0  0
    1.9076   -2.2863   -1.1828 H   0  0  0  0  0  0  0  0  0  0  0  0
    3.1768   -0.1709   -0.9570 H   0  0  0  0  0  0  0  0  0  0  0  0
    1.0474    1.0116    0.8278 H   0  0  0  0  0  0  0  0  0  0  0  0
    1.0829    1.2447   -0.9245 H   0  0  0  0  0  0  0  0  0  0  0  0
    2.4434    1.7725    0.0630 H   0  0  0  0  0  0  0  0  0  0  0  0
    0.6417   -1.5184    2.8587 H   0  0  0  0  0  0  0  0  0  0  0  0
    5.0688   -0.6700   -0.9370 H   0  0  0  0  0  0  0  0  0  0  0  0
    4.6803   -2.3721   -0.6454 H   0  0  0  0  0  0  0  0  0  0  0  0
    6.2461   -1.6950   -0.1710 H   0  0  0  0  0  0  0  0  0  0  0  0
    5.2978    0.9173    0.9742 H   0  0  0  0  0  0  0  0  0  0  0  0
    6.2470   -0.0565    2.0808 H   0  0  0  0  0  0  0  0  0  0  0  0
    4.6615    0.5179    2.5770 H   0  0  0  0  0  0  0  0  0  0  0  0
    4.3351   -3.2340    1.7481 H   0  0  0  0  0  0  0  0  0  0  0  0
    4.4254   -2.1120    3.1116 H   0  0  0  0  0  0  0  0  0  0  0  0
    7.0562   -2.0968    1.8911 H   0  0  0  0  0  0  0  0  0  0  0  0
    4.7295   -4.4228    3.7043 H   0  0  0  0  0  0  0  0  0  0  0  0
    5.9337   -4.5978    4.9705 H   0  0  0  0  0  0  0  0  0  0  0  0
    5.9398   -5.6861    3.5580 H   0  0  0  0  0  0  0  0  0  0  0  0
    8.8226   -3.2210    2.8281 H   0  0  0  0  0  0  0  0  0  0  0  0
    8.1833   -5.5932    4.6703 H   0  0  0  0  0  0  0  0  0  0  0  0
    9.8268   -4.9049    4.1796 H   0  0  0  0  0  0  0  0  0  0  0  0
  1  2  1  0  0  0  0
  1 16  1  0  0  0  0
  1 17  1  0  0  0  0
  1 18  1  0  0  0  0
  2  3  1  0  0  0  0
  2  4  1  0  0  0  0
  2 19  1  0  0  0  0
  3 20  1  0  0  0  0
  3 21  1  0  0  0  0
  3 22  1  0  0  0  0
  4  5  2  0  0  0  0
  4  7  1  0  0  0  0
  5  6  1  0  0  0  0
  6 23  1  0  0  0  0
  7  8  1  0  0  0  0
  7  9  1  0  0  0  0
  7 10  1  0  0  0  0
  8 24  1  0  0  0  0
  8 25  1  0  0  0  0
  8 26  1  0  0  0  0
  9 27  1  0  0  0  0
  9 28  1  0  0  0  0
  9 29  1  0  0  0  0
 10 11  1  0  0  0  0
 10 30  1  0  0  0  0
 10 31  1  0  0  0  0
 11 12  2  3  0  0  0
 11 32  1  0  0  0  0
 12 13  1  0  0  0  0
 12 14  1  0  0  0  0
 13 33  1  0  0  0  0
 13 34  1  0  0  0  0
 13 35  1  0  0  0  0
 14 15  2  0  0  0  0
 14 36  1  0  0  0  0
 15 37  1  0  0  0  0
 15 38  1  0  0  0  0
M  END
$$$$
