leucine
 OpenBabel06142306093D

 22 21  0     0  0  0  0  0  0999 V2000
    1.0205   -0.0288   -0.0990 N   0  0  0  0  0  0  0  0  0  0  0  0
    2.5129   -0.0109    0.0675 C   0  0  0  0  0  0  0  0  0  0  0  0
    2.8106   -0.3037    1.5550 C   0  0  0  0  0  0  0  0  0  0  0  0
    3.8557   -0.0847    2.1427 O   0  0  0  0  0  0  0  0  0  0  0  0
    1.7406   -0.9042    2.1480 O   0  0  0  0  0  0  0  0  0  0  0  0
    3.0668    1.3301   -0.4303 C   0  0  0  0  0  0  0  0  0  0  0  0
    4.6074    1.4577   -0.4509 C   0  0  0  0  0  0  0  0  0  0  0  0
    5.2806    0.3644   -1.2812 C   0  0  0  0  0  0  0  0  0  0  0  0
    5.0074    2.8369   -0.9828 C   0  0  0  0  0  0  0  0  0  0  0  0
    0.8189    0.0192   -1.1026 H   0  0  0  0  0  0  0  0  0  0  0  0
    0.6518    0.8572    0.2677 H   0  0  0  0  0  0  0  0  0  0  0  0
    2.9075   -0.8511   -0.5140 H   0  0  0  0  0  0  0  0  0  0  0  0
    1.0407   -0.9502    1.4484 H   0  0  0  0  0  0  0  0  0  0  0  0
    2.6624    2.1421    0.1883 H   0  0  0  0  0  0  0  0  0  0  0  0
    2.6972    1.5061   -1.4506 H   0  0  0  0  0  0  0  0  0  0  0  0
    4.9909    1.3921    0.5721 H   0  0  0  0  0  0  0  0  0  0  0  0
    4.8421    0.2956   -2.2821 H   0  0  0  0  0  0  0  0  0  0  0  0
    5.1856   -0.6124   -0.7969 H   0  0  0  0  0  0  0  0  0  0  0  0
    6.3516    0.5644   -1.3947 H   0  0  0  0  0  0  0  0  0  0  0  0
    4.6844    2.9754   -2.0198 H   0  0  0  0  0  0  0  0  0  0  0  0
    6.0948    2.9647   -0.9462 H   0  0  0  0  0  0  0  0  0  0  0  0
    4.5605    3.6319   -0.3763 H   0  0  0  0  0  0  0  0  0  0  0  0
  1 10 1.00  0  0  0  0
  1 11 1.00  0  0  0  0
  1  2 1.00  0  0  0  0
  2  6 1.00  0  0  0  0
  2  3 1.00  0  0  0  0
  2 12 1.00  0  0  0  0
  3  4 2.00  0  0  0  0
  3  5 1.00  0  0  0  0
  5 13 1.00  0  0  0  0
  6  7 1.00  0  0  0  0
  6 14 1.00  0  0  0  0
  6 15 1.00  0  0  0  0
  7  8 1.00  0  0  0  0
  7  9 1.00  0  0  0  0
  7 16 1.00  0  0  0  0
  8 17 1.00  0  0  0  0
  8 18 1.00  0  0  0  0
  8 19 1.00  0  0  0  0
  9 20 1.00  0  0  0  0
  9 21 1.00  0  0  0  0
  9 22 1.00  0  0  0  0
M  END

