leucine
 OpenBabel07232223113D

 22 21  0     0  0  0  0  0  0999 V2000
    0.9925   -0.1410    0.0663 N   0  0  0  0  0  0  0  0  0  0  0  0
    2.4896   -0.0201   -0.0044 C   0  0  0  0  0  0  0  0  0  0  0  0
    2.8210    1.2061   -0.8804 C   0  0  0  0  0  0  0  0  0  0  0  0
    3.9393    1.6025   -1.1635 O   0  0  0  0  0  0  0  0  0  0  0  0
    1.6865    1.8357   -1.2940 O   0  0  0  0  0  0  0  0  0  0  0  0
    3.0787   -1.3243   -0.5616 C   0  0  0  0  0  0  0  0  0  0  0  0
    4.6187   -1.4012   -0.6213 C   0  0  0  0  0  0  0  0  0  0  0  0
    5.2714   -1.2058    0.7465 C   0  0  0  0  0  0  0  0  0  0  0  0
    5.0470   -2.7463   -1.2166 C   0  0  0  0  0  0  0  0  0  0  0  0
    0.7613   -0.5525    0.9761 H   0  0  0  0  0  0  0  0  0  0  0  0
    0.6897   -0.8527   -0.6076 H   0  0  0  0  0  0  0  0  0  0  0  0
    2.8439    0.1957    1.0085 H   0  0  0  0  0  0  0  0  0  0  0  0
    0.9462    1.3307   -0.8698 H   0  0  0  0  0  0  0  0  0  0  0  0
    2.6908   -1.4859   -1.5767 H   0  0  0  0  0  0  0  0  0  0  0  0
    2.7121   -2.1637    0.0466 H   0  0  0  0  0  0  0  0  0  0  0  0
    4.9956   -0.6248   -1.2955 H   0  0  0  0  0  0  0  0  0  0  0  0
    4.8449   -1.8848    1.4922 H   0  0  0  0  0  0  0  0  0  0  0  0
    5.1411   -0.1795    1.1031 H   0  0  0  0  0  0  0  0  0  0  0  0
    6.3492   -1.3957    0.6947 H   0  0  0  0  0  0  0  0  0  0  0  0
    4.7209   -3.5825   -0.5896 H   0  0  0  0  0  0  0  0  0  0  0  0
    6.1368   -2.7983   -1.3128 H   0  0  0  0  0  0  0  0  0  0  0  0
    4.6201   -2.8820   -2.2158 H   0  0  0  0  0  0  0  0  0  0  0  0
  1 10 1.00  0  0  0  0
  1 11 1.00  0  0  0  0
  1  2 1.00  0  0  0  0
  2  6 1.00  0  0  0  0
  2  3 1.00  0  0  0  0
  2 12 1.00  0  0  0  0
  3  4 2.00  0  0  0  0
  3  5 1.00  0  0  0  0
  5 13 1.00  0  0  0  0
  6  7 1.00  0  0  0  0
  6 14 1.00  0  0  0  0
  6 15 1.00  0  0  0  0
  7  8 1.00  0  0  0  0
  7  9 1.00  0  0  0  0
  7 16 1.00  0  0  0  0
  8 17 1.00  0  0  0  0
  8 18 1.00  0  0  0  0
  8 19 1.00  0  0  0  0
  9 20 1.00  0  0  0  0
  9 21 1.00  0  0  0  0
  9 22 1.00  0  0  0  0
M  END

