
 OpenBabel10132410243D

 29 28  0  0  1  0  0  0  0  0999 V2000
    1.4528    8.5256    2.2974 C   0  0  0  0  0  0  0  0  0  0  0  0
    1.3364    7.9488    0.9147 C   0  0  0  0  0  0  0  0  0  0  0  0
    1.8623    6.7699    0.5316 C   0  0  0  0  0  0  0  0  0  0  0  0
    2.7067    5.8483    1.3669 C   0  0  0  0  0  0  0  0  0  0  0  0
    1.8588    4.8137    2.1183 C   0  0  0  0  0  0  0  0  0  0  0  0
    2.6947    3.8842    3.0215 C   0  0  2  0  0  0  0  0  0  0  0  0
    1.7986    2.8173    3.6607 C   0  0  0  0  0  0  0  0  0  0  0  0
    3.4043    4.6607    4.1119 C   0  0  0  0  0  0  0  0  0  0  0  0
    4.7285    4.8026    4.2723 C   0  0  0  0  0  0  0  0  0  0  0  0
    3.6426    3.2058    2.1999 O   0  0  0  0  0  0  0  0  0  0  0  0
    0.5601    8.7831   -0.0685 C   0  0  0  0  0  0  0  0  0  0  0  0
    2.0065    7.8874    2.9904 H   0  0  0  0  0  0  0  0  0  0  0  0
    0.4559    8.6739    2.7257 H   0  0  0  0  0  0  0  0  0  0  0  0
    1.9628    9.4942    2.2619 H   0  0  0  0  0  0  0  0  0  0  0  0
    1.7003    6.4341   -0.4945 H   0  0  0  0  0  0  0  0  0  0  0  0
    3.3213    6.4329    2.0580 H   0  0  0  0  0  0  0  0  0  0  0  0
    3.4161    5.3410    0.7015 H   0  0  0  0  0  0  0  0  0  0  0  0
    1.3241    4.2067    1.3745 H   0  0  0  0  0  0  0  0  0  0  0  0
    1.0934    5.3239    2.7193 H   0  0  0  0  0  0  0  0  0  0  0  0
    2.3833    2.1431    4.2981 H   0  0  0  0  0  0  0  0  0  0  0  0
    1.3348    2.1865    2.8932 H   0  0  0  0  0  0  0  0  0  0  0  0
    1.0044    3.2607    4.2717 H   0  0  0  0  0  0  0  0  0  0  0  0
    2.7529    5.1719    4.8201 H   0  0  0  0  0  0  0  0  0  0  0  0
    5.4429    4.3534    3.5884 H   0  0  0  0  0  0  0  0  0  0  0  0
    5.1284    5.4041    5.0818 H   0  0  0  0  0  0  0  0  0  0  0  0
    4.1340    2.5962    2.7757 H   0  0  0  0  0  0  0  0  0  0  0  0
    0.1904    9.7047    0.3943 H   0  0  0  0  0  0  0  0  0  0  0  0
   -0.3078    8.2311   -0.4448 H   0  0  0  0  0  0  0  0  0  0  0  0
    1.1949    9.0720   -0.9127 H   0  0  0  0  0  0  0  0  0  0  0  0
  1  2  1  0  0  0  0
  1 12  1  0  0  0  0
  1 13  1  0  0  0  0
  1 14  1  0  0  0  0
  2  3  2  0  0  0  0
  2 11  1  0  0  0  0
  3  4  1  0  0  0  0
  3 15  1  0  0  0  0
  4  5  1  0  0  0  0
  4 16  1  0  0  0  0
  4 17  1  0  0  0  0
  5 18  1  0  0  0  0
  5 19  1  0  0  0  0
  6  8  1  1  0  0  0
  6 10  1  0  0  0  0
  6  7  1  0  0  0  0
  6  5  1  0  0  0  0
  7 20  1  0  0  0  0
  7 21  1  0  0  0  0
  7 22  1  0  0  0  0
  8  9  2  0  0  0  0
  8 23  1  0  0  0  0
  9 24  1  0  0  0  0
  9 25  1  0  0  0  0
 10 26  1  0  0  0  0
 11 27  1  0  0  0  0
 11 28  1  0  0  0  0
 11 29  1  0  0  0  0
M  END
$$$$
