lysine
 OpenBabel07232223113D

 25 24  0     0  0  0  0  0  0999 V2000
    0.8760    0.1840   -0.2290 N   0  0  0  0  0  0  0  0  0  0  0  0
    2.3430    0.0623   -0.1144 C   0  0  0  0  0  0  0  0  0  0  0  0
    2.7085   -1.4108   -0.3882 C   0  0  0  0  0  0  0  0  0  0  0  0
    3.4104   -2.0994    0.3417 O   0  0  0  0  0  0  0  0  0  0  0  0
    2.1164   -1.8642   -1.5211 O   0  0  0  0  0  0  0  0  0  0  0  0
    2.8395    0.4937    1.2734 C   0  0  0  0  0  0  0  0  0  0  0  0
    4.3760    0.5721    1.3431 C   0  0  0  0  0  0  0  0  0  0  0  0
    4.9137    0.8662    2.7467 C   0  0  0  0  0  0  0  0  0  0  0  0
    4.4972   -0.1239    3.8311 C   0  0  0  0  0  0  0  0  0  0  0  0
    4.8981   -1.5046    3.4748 N   0  0  0  0  0  0  0  0  0  0  0  0
    0.5862    1.1390   -0.0035 H   0  0  0  0  0  0  0  0  0  0  0  0
    0.4183   -0.4009    0.4774 H   0  0  0  0  0  0  0  0  0  0  0  0
    2.8103    0.6822   -0.8880 H   0  0  0  0  0  0  0  0  0  0  0  0
    1.4856   -1.1807   -1.8524 H   0  0  0  0  0  0  0  0  0  0  0  0
    2.4597   -0.2134    2.0193 H   0  0  0  0  0  0  0  0  0  0  0  0
    2.4330    1.4798    1.5304 H   0  0  0  0  0  0  0  0  0  0  0  0
    4.7231    1.3577    0.6606 H   0  0  0  0  0  0  0  0  0  0  0  0
    4.8441   -0.3484    0.9822 H   0  0  0  0  0  0  0  0  0  0  0  0
    4.5923    1.8712    3.0445 H   0  0  0  0  0  0  0  0  0  0  0  0
    6.0099    0.8966    2.6939 H   0  0  0  0  0  0  0  0  0  0  0  0
    3.4161   -0.1336    3.9931 H   0  0  0  0  0  0  0  0  0  0  0  0
    4.9861    0.1160    4.7807 H   0  0  0  0  0  0  0  0  0  0  0  0
    4.4709   -1.8354    2.5912 H   0  0  0  0  0  0  0  0  0  0  0  0
    4.6137   -2.1727    4.2032 H   0  0  0  0  0  0  0  0  0  0  0  0
    5.9170   -1.5916    3.3675 H   0  0  0  0  0  0  0  0  0  0  0  0
  1  2 1.00  0  0  0  0
  2  3 1.00  0  0  0  0
  3  4 2.00  0  0  0  0
  3  5 1.00  0  0  0  0
  6  2 1.00  0  0  0  0
  6  7 1.00  0  0  0  0
  6 15 1.00  0  0  0  0
  6 16 1.00  0  0  0  0
  7  8 1.00  0  0  0  0
  7 17 1.00  0  0  0  0
  7 18 1.00  0  0  0  0
  8  9 1.00  0  0  0  0
  8 19 1.00  0  0  0  0
  8 20 1.00  0  0  0  0
  9 10 1.00  0  0  0  0
  9 21 1.00  0  0  0  0
  9 22 1.00  0  0  0  0
 10 23 1.00  0  0  0  0
 10 24 1.00  0  0  0  0
 10 25 1.00  0  0  0  0
 11  1 1.00  0  0  0  0
 12  1 1.00  0  0  0  0
 13  2 1.00  0  0  0  0
 14  5 1.00  0  0  0  0
M  CHG  4  10  1  23  1  24  1  25  1  
M  END

