methionine
 OpenBabel06142306093D

 20 19  0     0  0  0  0  0  0999 V2000
    0.9675   -0.1542    0.0032 N   0  0  0  0  0  0  0  0  0  0  0  0
    2.4599   -0.0454    0.0643 C   0  0  0  0  0  0  0  0  0  0  0  0
    2.8711   -0.2041    1.5463 C   0  0  0  0  0  0  0  0  0  0  0  0
    3.9227    0.1483    2.0477 O   0  0  0  0  0  0  0  0  0  0  0  0
    1.9009   -0.8585    2.2437 O   0  0  0  0  0  0  0  0  0  0  0  0
    2.9213    1.2692   -0.5760 C   0  0  0  0  0  0  0  0  0  0  0  0
    4.4451    1.3594   -0.6900 C   0  0  0  0  0  0  0  0  0  0  0  0
    4.9274    2.8759   -1.5756 S   0  0  0  0  0  0  0  0  0  0  0  0
    6.7168    2.7619   -1.3183 C   0  0  0  0  0  0  0  0  0  0  0  0
    0.6897   -0.1211   -0.9831 H   0  0  0  0  0  0  0  0  0  0  0  0
    0.5706    0.7089    0.3952 H   0  0  0  0  0  0  0  0  0  0  0  0
    2.8761   -0.9037   -0.4753 H   0  0  0  0  0  0  0  0  0  0  0  0
    1.1632   -1.0153    1.6013 H   0  0  0  0  0  0  0  0  0  0  0  0
    2.5389    2.1218   -0.0007 H   0  0  0  0  0  0  0  0  0  0  0  0
    2.4858    1.3365   -1.5834 H   0  0  0  0  0  0  0  0  0  0  0  0
    4.8383    0.4965   -1.2369 H   0  0  0  0  0  0  0  0  0  0  0  0
    4.9112    1.3937    0.2955 H   0  0  0  0  0  0  0  0  0  0  0  0
    7.2054    3.6274   -1.7732 H   0  0  0  0  0  0  0  0  0  0  0  0
    7.1076    1.8544   -1.7859 H   0  0  0  0  0  0  0  0  0  0  0  0
    6.9498    2.7535   -0.2502 H   0  0  0  0  0  0  0  0  0  0  0  0
  1 10 1.00  0  0  0  0
  1 11 1.00  0  0  0  0
  1  2 1.00  0  0  0  0
  2  6 1.00  0  0  0  0
  2  3 1.00  0  0  0  0
  2 12 1.00  0  0  0  0
  3  4 2.00  0  0  0  0
  3  5 1.00  0  0  0  0
  5 13 1.00  0  0  0  0
  6  7 1.00  0  0  0  0
  6 14 1.00  0  0  0  0
  6 15 1.00  0  0  0  0
  7  8 1.00  0  0  0  0
  7 16 1.00  0  0  0  0
  7 17 1.00  0  0  0  0
  8  9 1.00  0  0  0  0
  9 18 1.00  0  0  0  0
  9 19 1.00  0  0  0  0
  9 20 1.00  0  0  0  0
M  END

