
 OpenBabel09062206143D

 21 21  0  0  0  0  0  0  0  0999 V2000
   -0.3249    1.2536   -0.2199 C   0  0  0  0  0  0  0  0  0  0  0  0
    1.1334    1.2777    0.2130 C   0  0  0  0  0  0  0  0  0  0  0  0
    1.8874    0.0310   -0.2387 C   0  0  0  0  0  0  0  0  0  0  0  0
    1.1723   -1.2368    0.2144 C   0  0  0  0  0  0  0  0  0  0  0  0
   -0.2722   -1.2545   -0.2630 C   0  0  0  0  0  0  0  0  0  0  0  0
   -0.9790   -0.0230    0.2527 N   0  3  0  0  0  0  0  0  0  0  0  0
   -2.4467   -0.0473   -0.0764 C   0  0  0  0  0  0  0  0  0  0  0  0
   -0.4222    1.2905   -1.3110 H   0  0  0  0  0  0  0  0  0  0  0  0
   -0.8743    2.0891    0.2266 H   0  0  0  0  0  0  0  0  0  0  0  0
    1.1899    1.3585    1.3061 H   0  0  0  0  0  0  0  0  0  0  0  0
    1.6220    2.1692   -0.1966 H   0  0  0  0  0  0  0  0  0  0  0  0
    2.9072    0.0468    0.1622 H   0  0  0  0  0  0  0  0  0  0  0  0
    1.9725    0.0307   -1.3325 H   0  0  0  0  0  0  0  0  0  0  0  0
    1.2006   -1.3014    1.3095 H   0  0  0  0  0  0  0  0  0  0  0  0
    1.6995   -2.1166   -0.1706 H   0  0  0  0  0  0  0  0  0  0  0  0
   -0.8000   -2.1290    0.1314 H   0  0  0  0  0  0  0  0  0  0  0  0
   -0.3413   -1.2452   -1.3564 H   0  0  0  0  0  0  0  0  0  0  0  0
   -0.9111   -0.0400    1.2796 H   0  0  0  0  0  0  0  0  0  0  0  0
   -2.5614   -0.0081   -1.1630 H   0  0  0  0  0  0  0  0  0  0  0  0
   -2.9139    0.8186    0.3994 H   0  0  0  0  0  0  0  0  0  0  0  0
   -2.8713   -0.9692    0.3297 H   0  0  0  0  0  0  0  0  0  0  0  0
  1  2  1  0  0  0  0
  1  6  1  0  0  0  0
  1  8  1  0  0  0  0
  1  9  1  0  0  0  0
  2  3  1  0  0  0  0
  2 10  1  0  0  0  0
  2 11  1  0  0  0  0
  3  4  1  0  0  0  0
  3 12  1  0  0  0  0
  3 13  1  0  0  0  0
  4  5  1  0  0  0  0
  4 14  1  0  0  0  0
  4 15  1  0  0  0  0
  5  6  1  0  0  0  0
  5 16  1  0  0  0  0
  5 17  1  0  0  0  0
  6  7  1  0  0  0  0
  6 18  1  0  0  0  0
  7 19  1  0  0  0  0
  7 20  1  0  0  0  0
  7 21  1  0  0  0  0
M  CHG  1   6   1
M  END
$$$$
