phenylalanine
 OpenBabel07232223113D

 23 23  0     0  0  0  0  0  0999 V2000
    2.7689    0.4605   -1.6829 N   0  0  0  0  0  0  0  0  0  0  0  0
    2.3599    0.0828   -0.2951 C   0  0  0  0  0  0  0  0  0  0  0  0
    0.8320    0.2767   -0.2187 C   0  0  0  0  0  0  0  0  0  0  0  0
    0.1765    0.4641    0.7987 O   0  0  0  0  0  0  0  0  0  0  0  0
    0.2716    0.1826   -1.4552 O   0  0  0  0  0  0  0  0  0  0  0  0
    3.0492    0.8766    0.8325 C   0  0  0  0  0  0  0  0  0  0  0  0
    4.5561    0.7474    0.9479 C   0  0  0  0  0  0  0  0  0  0  0  0
    5.4321    1.1876   -0.0558 C   0  0  0  0  0  0  0  0  0  0  0  0
    6.8183    1.0939    0.1070 C   0  0  0  0  0  0  0  0  0  0  0  0
    7.3512    0.5774    1.2838 C   0  0  0  0  0  0  0  0  0  0  0  0
    6.4984    0.1564    2.2993 C   0  0  0  0  0  0  0  0  0  0  0  0
    5.1132    0.2442    2.1342 C   0  0  0  0  0  0  0  0  0  0  0  0
    3.6919    0.0481   -1.8528 H   0  0  0  0  0  0  0  0  0  0  0  0
    2.9309    1.4739   -1.6909 H   0  0  0  0  0  0  0  0  0  0  0  0
    2.5435   -0.9919   -0.1750 H   0  0  0  0  0  0  0  0  0  0  0  0
    1.0348    0.1002   -2.0847 H   0  0  0  0  0  0  0  0  0  0  0  0
    2.6081    0.5348    1.7818 H   0  0  0  0  0  0  0  0  0  0  0  0
    2.7915    1.9410    0.7701 H   0  0  0  0  0  0  0  0  0  0  0  0
    5.0647    1.6291   -0.9765 H   0  0  0  0  0  0  0  0  0  0  0  0
    7.4829    1.4368   -0.6822 H   0  0  0  0  0  0  0  0  0  0  0  0
    8.4284    0.5123    1.4135 H   0  0  0  0  0  0  0  0  0  0  0  0
    6.9100   -0.2353    3.2265 H   0  0  0  0  0  0  0  0  0  0  0  0
    4.4723   -0.0725    2.9548 H   0  0  0  0  0  0  0  0  0  0  0  0
  1  2 1.00  0  0  0  0
  2  6 1.00  0  0  0  0
  2  3 1.00  0  0  0  0
  3  4 2.00  0  0  0  0
  3  5 1.00  0  0  0  0
  5 16 1.00  0  0  0  0
  6 17 1.00  0  0  0  0
  6 18 1.00  0  0  0  0
  7  6 1.00  0  0  0  0
  7  8 1.00  0  0  0  0
  7 12 2.00  0  0  0  0
  8  9 2.00  0  0  0  0
  8 19 1.00  0  0  0  0
  9 10 1.00  0  0  0  0
  9 20 1.00  0  0  0  0
 10 11 2.00  0  0  0  0
 10 21 1.00  0  0  0  0
 11 12 1.00  0  0  0  0
 11 22 1.00  0  0  0  0
 12 23 1.00  0  0  0  0
 13  1 1.00  0  0  0  0
 14  1 1.00  0  0  0  0
 15  2 1.00  0  0  0  0
M  END

