phenylalanine
 OpenBabel06142306093D

 23 23  0     0  0  0  0  0  0999 V2000
    0.9692   -0.0975    0.1422 N   0  0  0  0  0  0  0  0  0  0  0  0
    2.4669    0.0152    0.2087 C   0  0  0  0  0  0  0  0  0  0  0  0
    2.8487    0.0922    1.7061 C   0  0  0  0  0  0  0  0  0  0  0  0
    3.8616    0.5680    2.1886 O   0  0  0  0  0  0  0  0  0  0  0  0
    1.8836   -0.4963    2.4688 O   0  0  0  0  0  0  0  0  0  0  0  0
    2.9636    1.2107   -0.6205 C   0  0  0  0  0  0  0  0  0  0  0  0
    4.4674    1.3231   -0.7120 C   0  0  0  0  0  0  0  0  0  0  0  0
    5.2425    0.3030   -1.2800 C   0  0  0  0  0  0  0  0  0  0  0  0
    6.6352    0.3982   -1.2947 C   0  0  0  0  0  0  0  0  0  0  0  0
    7.2651    1.5161   -0.7510 C   0  0  0  0  0  0  0  0  0  0  0  0
    6.5032    2.5459   -0.2043 C   0  0  0  0  0  0  0  0  0  0  0  0
    5.1126    2.4504   -0.1876 C   0  0  0  0  0  0  0  0  0  0  0  0
    0.7028   -0.1844   -0.8429 H   0  0  0  0  0  0  0  0  0  0  0  0
    0.5747    0.8067    0.4277 H   0  0  0  0  0  0  0  0  0  0  0  0
    2.8778   -0.9268   -0.1735 H   0  0  0  0  0  0  0  0  0  0  0  0
    1.1681   -0.7680    1.8422 H   0  0  0  0  0  0  0  0  0  0  0  0
    2.5459    2.1399   -0.2117 H   0  0  0  0  0  0  0  0  0  0  0  0
    2.5782    1.1333   -1.6476 H   0  0  0  0  0  0  0  0  0  0  0  0
    4.7757   -0.5814   -1.7077 H   0  0  0  0  0  0  0  0  0  0  0  0
    7.2332   -0.4078   -1.7127 H   0  0  0  0  0  0  0  0  0  0  0  0
    8.3496    1.5803   -0.7407 H   0  0  0  0  0  0  0  0  0  0  0  0
    6.9923    3.4139    0.2289 H   0  0  0  0  0  0  0  0  0  0  0  0
    4.5383    3.2535    0.2695 H   0  0  0  0  0  0  0  0  0  0  0  0
  1 13 1.00  0  0  0  0
  1 14 1.00  0  0  0  0
  1  2 1.00  0  0  0  0
  2  6 1.00  0  0  0  0
  2  3 1.00  0  0  0  0
  2 15 1.00  0  0  0  0
  3  4 2.00  0  0  0  0
  3  5 1.00  0  0  0  0
  5 16 1.00  0  0  0  0
  6  7 1.00  0  0  0  0
  6 17 1.00  0  0  0  0
  6 18 1.00  0  0  0  0
  7  8 1.00  0  0  0  0
  7 12 2.00  0  0  0  0
  8  9 2.00  0  0  0  0
  8 19 1.00  0  0  0  0
  9 10 1.00  0  0  0  0
  9 20 1.00  0  0  0  0
 10 11 2.00  0  0  0  0
 10 21 1.00  0  0  0  0
 11 12 1.00  0  0  0  0
 11 22 1.00  0  0  0  0
 12 23 1.00  0  0  0  0
M  END

