proline
 OpenBabel06142306093D

 17 17  0     0  0  0  0  0  0999 V2000
   -1.1216    0.4745    0.1628 N   0  0  0  0  0  0  0  0  0  0  0  0
   -0.8379   -0.9445   -0.2215 C   0  0  0  0  0  0  0  0  0  0  0  0
   -1.8690   -1.8702    0.4247 C   0  0  0  0  0  0  0  0  0  0  0  0
   -1.6764   -3.0269    0.7554 O   0  0  0  0  0  0  0  0  0  0  0  0
   -3.0675   -1.2415    0.5691 O   0  0  0  0  0  0  0  0  0  0  0  0
    0.5784   -1.1646    0.2607 C   0  0  0  0  0  0  0  0  0  0  0  0
    1.2562    0.1362   -0.1246 C   0  0  0  0  0  0  0  0  0  0  0  0
    0.1569    1.1879   -0.0435 C   0  0  0  0  0  0  0  0  0  0  0  0
   -1.2774    0.4875    1.1784 H   0  0  0  0  0  0  0  0  0  0  0  0
   -0.9184   -1.0497   -1.3100 H   0  0  0  0  0  0  0  0  0  0  0  0
   -2.9703   -0.3232    0.2235 H   0  0  0  0  0  0  0  0  0  0  0  0
    1.0538   -2.0299   -0.2122 H   0  0  0  0  0  0  0  0  0  0  0  0
    0.6157   -1.3103    1.3464 H   0  0  0  0  0  0  0  0  0  0  0  0
    1.6287    0.0701   -1.1540 H   0  0  0  0  0  0  0  0  0  0  0  0
    2.1035    0.3637    0.5301 H   0  0  0  0  0  0  0  0  0  0  0  0
    0.1186    1.7899   -0.9569 H   0  0  0  0  0  0  0  0  0  0  0  0
    0.3329    1.8701    0.7959 H   0  0  0  0  0  0  0  0  0  0  0  0
  1  8 1.00  0  0  0  0
  1  9 1.00  0  0  0  0
  2  1 1.00  0  0  0  0
  2  3 1.00  0  0  0  0
  2  6 1.00  0  0  0  0
  2 10 1.00  0  0  0  0
  3  4 2.00  0  0  0  0
  3  5 1.00  0  0  0  0
  5 11 1.00  0  0  0  0
  6  7 1.00  0  0  0  0
  6 12 1.00  0  0  0  0
  6 13 1.00  0  0  0  0
  7  8 1.00  0  0  0  0
  7 14 1.00  0  0  0  0
  7 15 1.00  0  0  0  0
  8 16 1.00  0  0  0  0
  8 17 1.00  0  0  0  0
M  END

