proline
 OpenBabel07232223113D

 17 17  0     0  0  0  0  0  0999 V2000
   -1.1199    0.4832    0.1396 N   0  0  0  0  0  0  0  0  0  0  0  0
   -0.8344   -0.9418   -0.2230 C   0  0  0  0  0  0  0  0  0  0  0  0
   -1.8587   -1.8593    0.4421 C   0  0  0  0  0  0  0  0  0  0  0  0
   -1.6599   -3.0083    0.7965 O   0  0  0  0  0  0  0  0  0  0  0  0
   -3.0614   -1.2345    0.5821 O   0  0  0  0  0  0  0  0  0  0  0  0
    0.5833   -1.1568    0.2571 C   0  0  0  0  0  0  0  0  0  0  0  0
    1.2607    0.1404   -0.1348 C   0  0  0  0  0  0  0  0  0  0  0  0
    0.1651    1.1934   -0.0427 C   0  0  0  0  0  0  0  0  0  0  0  0
   -1.2969    0.5074    1.1511 H   0  0  0  0  0  0  0  0  0  0  0  0
   -0.9189   -1.0655   -1.3089 H   0  0  0  0  0  0  0  0  0  0  0  0
   -2.9749   -0.3252    0.2153 H   0  0  0  0  0  0  0  0  0  0  0  0
    1.0567   -2.0241   -0.2133 H   0  0  0  0  0  0  0  0  0  0  0  0
    0.6234   -1.2991    1.3444 H   0  0  0  0  0  0  0  0  0  0  0  0
    1.6226    0.0725   -1.1677 H   0  0  0  0  0  0  0  0  0  0  0  0
    2.1154    0.3656    0.5104 H   0  0  0  0  0  0  0  0  0  0  0  0
    0.1392    1.8182   -0.9411 H   0  0  0  0  0  0  0  0  0  0  0  0
    0.3363    1.8540    0.8149 H   0  0  0  0  0  0  0  0  0  0  0  0
  2  1 1.00  0  0  0  0
  2  3 1.00  0  0  0  0
  2  6 1.00  0  0  0  0
  2 10 1.00  0  0  0  0
  3  4 2.00  0  0  0  0
  3  5 1.00  0  0  0  0
  5 11 1.00  0  0  0  0
  6  7 1.00  0  0  0  0
  6 12 1.00  0  0  0  0
  6 13 1.00  0  0  0  0
  7  8 1.00  0  0  0  0
  7 14 1.00  0  0  0  0
  7 15 1.00  0  0  0  0
  8  1 1.00  0  0  0  0
  8 16 1.00  0  0  0  0
  8 17 1.00  0  0  0  0
  9  1 1.00  0  0  0  0
M  END

