
 OpenBabel02242322453D

 10  9  0  0  0  0  0  0  0  0999 V2000
    0.9833    0.0811    0.0626 C   0  0  0  0  0  0  0  0  0  0  0  0
    2.4980    0.0122    0.0681 C   0  0  0  0  0  0  0  0  0  0  0  0
    3.0782   -1.4010    0.1805 C   0  0  0  0  0  0  0  0  0  0  0  0
    2.2502   -2.3490    0.2542 O   0  0  0  0  0  0  0  0  0  0  0  0
    4.3429   -1.4389    0.1851 O   0  5  0  0  0  0  0  0  0  0  0  0
    0.6477    1.1194   -0.0199 H   0  0  0  0  0  0  0  0  0  0  0  0
    0.5677   -0.3384    0.9847 H   0  0  0  0  0  0  0  0  0  0  0  0
    0.5677   -0.4788   -0.7816 H   0  0  0  0  0  0  0  0  0  0  0  0
    2.8815    0.6047    0.9073 H   0  0  0  0  0  0  0  0  0  0  0  0
    2.8816    0.4646   -0.8541 H   0  0  0  0  0  0  0  0  0  0  0  0
  1  2  1  0  0  0  0
  1  6  1  0  0  0  0
  1  7  1  0  0  0  0
  1  8  1  0  0  0  0
  2  3  1  0  0  0  0
  2  9  1  0  0  0  0
  2 10  1  0  0  0  0
  3  4  2  0  0  0  0
  3  5  1  0  0  0  0
M  CHG  1   5  -1
M  END
$$$$
