
 OpenBabel07152306173D

 10  9  0  0  0  0  0  0  0  0999 V2000
    1.0556   -0.0226   -0.0766 C   0  0  0  0  0  0  0  0  0  0  0  0
    2.5705   -0.0483   -0.1412 C   0  0  0  0  0  0  0  0  0  0  0  0
    3.1503   -0.5720   -1.4589 C   0  0  0  0  0  0  0  0  0  0  0  0
    2.3221   -0.9219   -2.3436 O   0  0  0  0  0  0  0  0  0  0  0  0
    4.4137   -0.5875   -1.4937 O   0  5  0  0  0  0  0  0  0  0  0  0
    0.7206    0.3622    0.8915 H   0  0  0  0  0  0  0  0  0  0  0  0
    0.6395   -1.0272   -0.2056 H   0  0  0  0  0  0  0  0  0  0  0  0
    0.6395    0.6194   -0.8600 H   0  0  0  0  0  0  0  0  0  0  0  0
    2.9539   -0.6758    0.6721 H   0  0  0  0  0  0  0  0  0  0  0  0
    2.9539    0.9663    0.0193 H   0  0  0  0  0  0  0  0  0  0  0  0
  1  2  1  0  0  0  0
  1  6  1  0  0  0  0
  1  7  1  0  0  0  0
  1  8  1  0  0  0  0
  2  3  1  0  0  0  0
  2  9  1  0  0  0  0
  2 10  1  0  0  0  0
  3  4  2  0  0  0  0
  3  5  1  0  0  0  0
M  CHG  1   5  -1
M  END
$$$$
