
 OpenBabel07172213263D

 17 18  0  0  0  0  0  0  0  0999 V2000
    2.4482   -0.6782    0.0071 C   0  0  0  0  0  0  0  0  0  0  0  0
    2.4086    0.7117   -0.0018 C   0  0  0  0  0  0  0  0  0  0  0  0
    1.1768    1.3734   -0.0083 C   0  0  0  0  0  0  0  0  0  0  0  0
   -0.0255    0.6792   -0.0051 C   0  0  0  0  0  0  0  0  0  0  0  0
    0.0203   -0.7321   -0.0039 C   0  0  0  0  0  0  0  0  0  0  0  0
    1.2568   -1.4009    0.0033 C   0  0  0  0  0  0  0  0  0  0  0  0
   -1.1945   -1.4295   -0.0084 C   0  0  0  0  0  0  0  0  0  0  0  0
   -2.3933   -0.7278   -0.0050 C   0  0  0  0  0  0  0  0  0  0  0  0
   -2.3359    0.6532    0.0006 C   0  0  0  0  0  0  0  0  0  0  0  0
   -1.1853    1.3613   -0.0024 N   0  0  0  0  0  0  0  0  0  0  0  0
    3.4026   -1.1978    0.0168 H   0  0  0  0  0  0  0  0  0  0  0  0
    3.3313    1.2860   -0.0028 H   0  0  0  0  0  0  0  0  0  0  0  0
    1.1530    2.4605   -0.0150 H   0  0  0  0  0  0  0  0  0  0  0  0
    1.2963   -2.4876    0.0084 H   0  0  0  0  0  0  0  0  0  0  0  0
   -1.2110   -2.5163   -0.0143 H   0  0  0  0  0  0  0  0  0  0  0  0
   -3.3464   -1.2437   -0.0059 H   0  0  0  0  0  0  0  0  0  0  0  0
   -3.2433    1.2505    0.0077 H   0  0  0  0  0  0  0  0  0  0  0  0
  1  2  2  0  0  0  0
  1  6  1  0  0  0  0
  1 11  1  0  0  0  0
  2  3  1  0  0  0  0
  2 12  1  0  0  0  0
  3  4  2  0  0  0  0
  3 13  1  0  0  0  0
  4  5  1  0  0  0  0
  4 10  1  0  0  0  0
  5  6  2  0  0  0  0
  5  7  1  0  0  0  0
  6 14  1  0  0  0  0
  7  8  2  0  0  0  0
  7 15  1  0  0  0  0
  8  9  1  0  0  0  0
  8 16  1  0  0  0  0
  9 10  2  0  0  0  0
  9 17  1  0  0  0  0
M  END
$$$$
