selenocysteine
 OpenBabel06142306053D

 14 13  0     0  0  0  0  0  0999 V2000
    2.8917    0.4164   -1.3215 N   0  0  0  0  0  0  0  0  0  0  0  0
    2.4542   -0.0878   -0.0169 C   0  0  0  0  0  0  0  0  0  0  0  0
    0.9468   -0.1875    0.0045 C   0  0  0  0  0  0  0  0  0  0  0  0
    0.4157   -1.2752    0.1673 O   0  0  0  0  0  0  0  0  0  0  0  0
    0.1671    0.9056   -0.1562 O   0  0  0  0  0  0  0  0  0  0  0  0
    2.9477    0.8042    1.1383 C   0  0  0  0  0  0  0  0  0  0  0  0
    4.8966    0.9210    1.2114 Se  0  0  0  0  0  0  0  0  0  0  0  0
    3.9304    0.3476   -1.4052 H   0  0  0  0  0  0  0  0  0  0  0  0
    2.6105    1.4168   -1.4415 H   0  0  0  0  0  0  0  0  0  0  0  0
    2.8738   -1.1091    0.1260 H   0  0  0  0  0  0  0  0  0  0  0  0
    0.5380    1.7882   -0.2919 H   0  0  0  0  0  0  0  0  0  0  0  0
    2.5899    0.4118    2.1145 H   0  0  0  0  0  0  0  0  0  0  0  0
    2.5509    1.8351    1.0255 H   0  0  0  0  0  0  0  0  0  0  0  0
    5.0319   -0.6039    1.3376 H   0  0  0  0  0  0  0  0  0  0  0  0
  1  8 1.00  0  0  0  0
  1  9 1.00  0  0  0  0
  1  2 1.00  0  0  0  0
  2  6 1.00  0  0  0  0
  2  3 1.00  0  0  0  0
  2 10 1.00  0  0  0  0
  3  4 2.00  0  0  0  0
  3  5 1.00  0  0  0  0
  5 11 1.00  0  0  0  0
  6  7 1.00  0  0  0  0
  6 12 1.00  0  0  0  0
  6 13 1.00  0  0  0  0
  7 14 1.00  0  0  0  0
M  END

