serine
 OpenBabel06142306113D

 14 13  0     0  0  0  0  0  0999 V2000
    2.9633   -1.3782   -0.2422 N   0  0  0  0  0  0  0  0  0  0  0  0
    2.4794    0.0149    0.0315 C   0  0  0  0  0  0  0  0  0  0  0  0
    0.9523    0.0219    0.0024 C   0  0  0  0  0  0  0  0  0  0  0  0
    0.2493    1.0007   -0.1921 O   0  0  0  0  0  0  0  0  0  0  0  0
    0.4576   -1.2170    0.2631 O   0  0  0  0  0  0  0  0  0  0  0  0
    3.0612    1.0150   -0.9681 C   0  0  0  0  0  0  0  0  0  0  0  0
    4.4928    0.9615   -0.9254 O   0  0  0  0  0  0  0  0  0  0  0  0
    3.9903   -1.3146   -0.2588 H   0  0  0  0  0  0  0  0  0  0  0  0
    2.7511   -1.5902   -1.2248 H   0  0  0  0  0  0  0  0  0  0  0  0
    2.7967    0.2707    1.0478 H   0  0  0  0  0  0  0  0  0  0  0  0
    1.2395   -1.8169    0.3617 H   0  0  0  0  0  0  0  0  0  0  0  0
    2.7425    2.0420   -0.7466 H   0  0  0  0  0  0  0  0  0  0  0  0
    2.7476    0.7842   -1.9922 H   0  0  0  0  0  0  0  0  0  0  0  0
    4.7733    1.4114   -0.1055 H   0  0  0  0  0  0  0  0  0  0  0  0
  1  8 1.00  0  0  0  0
  1  9 1.00  0  0  0  0
  1  2 1.00  0  0  0  0
  2  6 1.00  0  0  0  0
  2  3 1.00  0  0  0  0
  2 10 1.00  0  0  0  0
  3  4 2.00  0  0  0  0
  3  5 1.00  0  0  0  0
  5 11 1.00  0  0  0  0
  6  7 1.00  0  0  0  0
  6 12 1.00  0  0  0  0
  6 13 1.00  0  0  0  0
  7 14 1.00  0  0  0  0
M  END

