threonine
 OpenBabel06142306093D

 17 16  0     0  0  0  0  0  0999 V2000
    2.8176    0.0301    1.5330 N   0  0  0  0  0  0  0  0  0  0  0  0
    2.3414    0.0445    0.1055 C   0  0  0  0  0  0  0  0  0  0  0  0
    0.7990    0.0921    0.0804 C   0  0  0  0  0  0  0  0  0  0  0  0
    0.1203    0.1786   -0.9254 O   0  0  0  0  0  0  0  0  0  0  0  0
    0.2598    0.0320    1.3262 O   0  0  0  0  0  0  0  0  0  0  0  0
    2.8837   -1.1788   -0.6533 C   0  0  0  0  0  0  0  0  0  0  0  0
    2.5345   -1.2127   -2.1363 C   0  0  0  0  0  0  0  0  0  0  0  0
    4.3192   -1.1943   -0.5220 O   0  0  0  0  0  0  0  0  0  0  0  0
    3.8402    0.1254    1.4694 H   0  0  0  0  0  0  0  0  0  0  0  0
    2.7421   -0.9342    1.8842 H   0  0  0  0  0  0  0  0  0  0  0  0
    2.7073    0.9787   -0.3371 H   0  0  0  0  0  0  0  0  0  0  0  0
    1.0046    0.0968    1.9662 H   0  0  0  0  0  0  0  0  0  0  0  0
    2.5211   -2.1026   -0.1866 H   0  0  0  0  0  0  0  0  0  0  0  0
    2.9032   -0.3171   -2.6479 H   0  0  0  0  0  0  0  0  0  0  0  0
    1.4574   -1.2947   -2.2999 H   0  0  0  0  0  0  0  0  0  0  0  0
    3.0060   -2.0748   -2.6217 H   0  0  0  0  0  0  0  0  0  0  0  0
    4.6814   -0.4941   -1.0960 H   0  0  0  0  0  0  0  0  0  0  0  0
  1  2 1.00  0  0  0  0
  2  3 1.00  0  0  0  0
  4  3 2.00  0  0  0  0
  5  3 1.00  0  0  0  0
  5 12 1.00  0  0  0  0
  6  2 1.00  0  0  0  0
  6  7 1.00  0  0  0  0
  6  8 1.00  0  0  0  0
  6 13 1.00  0  0  0  0
  7 14 1.00  0  0  0  0
  7 15 1.00  0  0  0  0
  7 16 1.00  0  0  0  0
  8 17 1.00  0  0  0  0
  9  1 1.00  0  0  0  0
 10  1 1.00  0  0  0  0
 11  2 1.00  0  0  0  0
M  END

