
 OpenBabel02152213293D

 14 13  0  0  0  0  0  0  0  0999 V2000
    1.0179   -0.0444    0.0242 N   0  3  0  0  0  0  0  0  0  0  0  0
    0.4855    0.5259    1.3078 C   0  0  0  0  0  0  0  0  0  0  0  0
    0.4854    0.6833   -1.1771 C   0  0  0  0  0  0  0  0  0  0  0  0
    2.5183   -0.1129    0.0198 C   0  0  0  0  0  0  0  0  0  0  0  0
    0.6748   -1.0126   -0.0371 H   0  0  0  0  0  0  0  0  0  0  0  0
    0.8338    1.5579    1.4028 H   0  0  0  0  0  0  0  0  0  0  0  0
    0.8553   -0.0901    2.1317 H   0  0  0  0  0  0  0  0  0  0  0  0
   -0.6062    0.4823    1.2712 H   0  0  0  0  0  0  0  0  0  0  0  0
    0.8337    1.7190   -1.1413 H   0  0  0  0  0  0  0  0  0  0  0  0
   -0.6064    0.6354   -1.1461 H   0  0  0  0  0  0  0  0  0  0  0  0
    0.8549    0.1759   -2.0722 H   0  0  0  0  0  0  0  0  0  0  0  0
    2.9150    0.9038    0.0840 H   0  0  0  0  0  0  0  0  0  0  0  0
    2.8328   -0.5988   -0.9077 H   0  0  0  0  0  0  0  0  0  0  0  0
    2.8329   -0.7116    0.8787 H   0  0  0  0  0  0  0  0  0  0  0  0
  1  2  1  0  0  0  0
  1  3  1  0  0  0  0
  1  4  1  0  0  0  0
  1  5  1  0  0  0  0
  2  6  1  0  0  0  0
  2  7  1  0  0  0  0
  2  8  1  0  0  0  0
  3  9  1  0  0  0  0
  3 10  1  0  0  0  0
  3 11  1  0  0  0  0
  4 12  1  0  0  0  0
  4 13  1  0  0  0  0
  4 14  1  0  0  0  0
M  CHG  1   1   1
M  END
$$$$
