tryptophan
 OpenBabel06142306093D

 27 28  0     0  0  0  0  0  0999 V2000
    2.6253    0.3400    2.6508 N   0  0  0  0  0  0  0  0  0  0  0  0
    2.3057    1.4390    1.6821 C   0  0  0  0  0  0  0  0  0  0  0  0
    0.7758    1.4959    1.5288 C   0  0  0  0  0  0  0  0  0  0  0  0
    0.1670    1.9867    0.5919 O   0  0  0  0  0  0  0  0  0  0  0  0
    0.1606    0.9417    2.6086 O   0  0  0  0  0  0  0  0  0  0  0  0
    2.9678    1.2703    0.3064 C   0  0  0  0  0  0  0  0  0  0  0  0
    4.4683    1.2822    0.3476 C   0  0  0  0  0  0  0  0  0  0  0  0
    5.2712    2.4082    0.3306 C   0  0  0  0  0  0  0  0  0  0  0  0
    6.5799    2.0052    0.3235 N   0  0  0  0  0  0  0  0  0  0  0  0
    6.6564    0.6335    0.3371 C   0  0  0  0  0  0  0  0  0  0  0  0
    7.7775   -0.2053    0.3132 C   0  0  0  0  0  0  0  0  0  0  0  0
    7.5569   -1.5844    0.3276 C   0  0  0  0  0  0  0  0  0  0  0  0
    6.2642   -2.1017    0.3697 C   0  0  0  0  0  0  0  0  0  0  0  0
    5.1535   -1.2493    0.3872 C   0  0  0  0  0  0  0  0  0  0  0  0
    5.3469    0.1496    0.3659 C   0  0  0  0  0  0  0  0  0  0  0  0
    3.6400    0.3767    2.8104 H   0  0  0  0  0  0  0  0  0  0  0  0
    2.5019   -0.5530    2.1613 H   0  0  0  0  0  0  0  0  0  0  0  0
    2.6103    2.3856    2.1443 H   0  0  0  0  0  0  0  0  0  0  0  0
    0.8872    0.6024    3.1905 H   0  0  0  0  0  0  0  0  0  0  0  0
    2.6386    2.0859   -0.3529 H   0  0  0  0  0  0  0  0  0  0  0  0
    2.6158    0.3472   -0.1729 H   0  0  0  0  0  0  0  0  0  0  0  0
    5.0234    3.4602    0.3028 H   0  0  0  0  0  0  0  0  0  0  0  0
    7.3811    2.6231    0.2924 H   0  0  0  0  0  0  0  0  0  0  0  0
    8.7854    0.1942    0.2739 H   0  0  0  0  0  0  0  0  0  0  0  0
    8.4065   -2.2633    0.3000 H   0  0  0  0  0  0  0  0  0  0  0  0
    6.1153   -3.1785    0.3777 H   0  0  0  0  0  0  0  0  0  0  0  0
    4.1535   -1.6703    0.4039 H   0  0  0  0  0  0  0  0  0  0  0  0
  1 16 1.00  0  0  0  0
  1 17 1.00  0  0  0  0
  1  2 1.00  0  0  0  0
  2  6 1.00  0  0  0  0
  2  3 1.00  0  0  0  0
  2 18 1.00  0  0  0  0
  3  4 2.00  0  0  0  0
  3  5 1.00  0  0  0  0
  5 19 1.00  0  0  0  0
  6  7 1.00  0  0  0  0
  6 20 1.00  0  0  0  0
  6 21 1.00  0  0  0  0
  7  8 2.00  0  0  0  0
  7 15 1.00  0  0  0  0
  8  9 1.00  0  0  0  0
  8 22 1.00  0  0  0  0
  9 10 1.00  0  0  0  0
  9 23 1.00  0  0  0  0
 10 11 1.00  0  0  0  0
 10 15 2.00  0  0  0  0
 11 12 2.00  0  0  0  0
 11 24 1.00  0  0  0  0
 12 13 1.00  0  0  0  0
 12 25 1.00  0  0  0  0
 13 14 2.00  0  0  0  0
 13 26 1.00  0  0  0  0
 14 15 1.00  0  0  0  0
 14 27 1.00  0  0  0  0
M  END

