tyrosine
 OpenBabel07232223113D

 24 24  0     0  0  0  0  0  0999 V2000
    2.5459    1.4015    0.0789 N   0  0  0  0  0  0  0  0  0  0  0  0
    2.2532   -0.0675   -0.0073 C   0  0  0  0  0  0  0  0  0  0  0  0
    0.7202   -0.2252    0.0863 C   0  0  0  0  0  0  0  0  0  0  0  0
    0.1220   -1.2616    0.3276 O   0  0  0  0  0  0  0  0  0  0  0  0
    0.0965    0.9558   -0.1599 O   0  0  0  0  0  0  0  0  0  0  0  0
    2.9295   -0.9274    1.0797 C   0  0  0  0  0  0  0  0  0  0  0  0
    4.4436   -0.9962    1.0310 C   0  0  0  0  0  0  0  0  0  0  0  0
    5.2409    0.1259    1.3035 C   0  0  0  0  0  0  0  0  0  0  0  0
    6.6359    0.0466    1.2558 C   0  0  0  0  0  0  0  0  0  0  0  0
    7.2444   -1.1693    0.9752 C   0  0  0  0  0  0  0  0  0  0  0  0
    8.6021   -1.2894    0.9248 O   0  0  0  0  0  0  0  0  0  0  0  0
    6.4782   -2.3052    0.7455 C   0  0  0  0  0  0  0  0  0  0  0  0
    5.0837   -2.2185    0.7674 C   0  0  0  0  0  0  0  0  0  0  0  0
    3.5071    1.5375   -0.2495 H   0  0  0  0  0  0  0  0  0  0  0  0
    2.5696    1.6601    1.0700 H   0  0  0  0  0  0  0  0  0  0  0  0
    2.5426   -0.4044   -1.0077 H   0  0  0  0  0  0  0  0  0  0  0  0
    0.8231    1.6159   -0.3049 H   0  0  0  0  0  0  0  0  0  0  0  0
    2.5384   -1.9513    0.9942 H   0  0  0  0  0  0  0  0  0  0  0  0
    2.6269   -0.5925    2.0813 H   0  0  0  0  0  0  0  0  0  0  0  0
    4.7919    1.0769    1.5744 H   0  0  0  0  0  0  0  0  0  0  0  0
    7.2241    0.9351    1.4552 H   0  0  0  0  0  0  0  0  0  0  0  0
    8.9997   -0.4161    1.0684 H   0  0  0  0  0  0  0  0  0  0  0  0
    6.9655   -3.2576    0.5559 H   0  0  0  0  0  0  0  0  0  0  0  0
    4.5041   -3.1220    0.5911 H   0  0  0  0  0  0  0  0  0  0  0  0
  1 15 1.00  0  0  0  0
  1  2 1.00  0  0  0  0
  2  3 1.00  0  0  0  0
  2 16 1.00  0  0  0  0
  3  4 2.00  0  0  0  0
  3  5 1.00  0  0  0  0
  5 17 1.00  0  0  0  0
  6  2 1.00  0  0  0  0
  6  7 1.00  0  0  0  0
  6 18 1.00  0  0  0  0
  6 19 1.00  0  0  0  0
  7  8 1.00  0  0  0  0
  7 13 2.00  0  0  0  0
  8  9 2.00  0  0  0  0
  8 20 1.00  0  0  0  0
  9 10 1.00  0  0  0  0
  9 21 1.00  0  0  0  0
 10 11 1.00  0  0  0  0
 10 12 2.00  0  0  0  0
 11 22 1.00  0  0  0  0
 12 13 1.00  0  0  0  0
 12 23 1.00  0  0  0  0
 13 24 1.00  0  0  0  0
 14  1 1.00  0  0  0  0
M  END

