tyrosine
 OpenBabel06142306093D

 24 24  0     0  0  0  0  0  0999 V2000
    2.7101   -1.4463   -0.2373 N   0  0  0  0  0  0  0  0  0  0  0  0
    2.4114   -0.0014    0.0311 C   0  0  0  0  0  0  0  0  0  0  0  0
    0.8868    0.1776   -0.1231 C   0  0  0  0  0  0  0  0  0  0  0  0
    0.3020    1.2383   -0.2754 O   0  0  0  0  0  0  0  0  0  0  0  0
    0.2439   -1.0207   -0.0471 O   0  0  0  0  0  0  0  0  0  0  0  0
    3.1388    0.9936   -0.8938 C   0  0  0  0  0  0  0  0  0  0  0  0
    4.6502    1.0220   -0.7954 C   0  0  0  0  0  0  0  0  0  0  0  0
    5.4348   -0.0412   -1.2684 C   0  0  0  0  0  0  0  0  0  0  0  0
    6.8304    0.0138   -1.2116 C   0  0  0  0  0  0  0  0  0  0  0  0
    7.4502    1.1505   -0.7104 C   0  0  0  0  0  0  0  0  0  0  0  0
    8.8096    1.2539   -0.6595 O   0  0  0  0  0  0  0  0  0  0  0  0
    6.6984    2.2254   -0.2583 C   0  0  0  0  0  0  0  0  0  0  0  0
    5.3026    2.1603   -0.2940 C   0  0  0  0  0  0  0  0  0  0  0  0
    3.6629   -1.6235    0.0970 H   0  0  0  0  0  0  0  0  0  0  0  0
    2.7640   -1.5740   -1.2537 H   0  0  0  0  0  0  0  0  0  0  0  0
    2.6479    0.1966    1.0809 H   0  0  0  0  0  0  0  0  0  0  0  0
    0.9594   -1.6999    0.0519 H   0  0  0  0  0  0  0  0  0  0  0  0
    2.7623    2.0022   -0.6722 H   0  0  0  0  0  0  0  0  0  0  0  0
    2.8633    0.8158   -1.9410 H   0  0  0  0  0  0  0  0  0  0  0  0
    4.9742   -0.9187   -1.7112 H   0  0  0  0  0  0  0  0  0  0  0  0
    7.4102   -0.8279   -1.5777 H   0  0  0  0  0  0  0  0  0  0  0  0
    9.1988    0.4415   -1.0200 H   0  0  0  0  0  0  0  0  0  0  0  0
    7.1954    3.1182    0.1112 H   0  0  0  0  0  0  0  0  0  0  0  0
    4.7321    3.0211    0.0517 H   0  0  0  0  0  0  0  0  0  0  0  0
  1 14 1.00  0  0  0  0
  1 15 1.00  0  0  0  0
  1  2 1.00  0  0  0  0
  2  6 1.00  0  0  0  0
  2  3 1.00  0  0  0  0
  2 16 1.00  0  0  0  0
  3  4 2.00  0  0  0  0
  3  5 1.00  0  0  0  0
  5 17 1.00  0  0  0  0
  6  7 1.00  0  0  0  0
  6 18 1.00  0  0  0  0
  6 19 1.00  0  0  0  0
  7  8 1.00  0  0  0  0
  7 13 2.00  0  0  0  0
  8  9 2.00  0  0  0  0
  8 20 1.00  0  0  0  0
  9 10 1.00  0  0  0  0
  9 21 1.00  0  0  0  0
 10 11 1.00  0  0  0  0
 10 12 2.00  0  0  0  0
 11 22 1.00  0  0  0  0
 12 13 1.00  0  0  0  0
 12 23 1.00  0  0  0  0
 13 24 1.00  0  0  0  0
M  END

