valine
 OpenBabel06142306093D

 19 18  0     0  0  0  0  0  0999 V2000
    2.7825   -0.7961   -1.0828 N   0  0  0  0  0  0  0  0  0  0  0  0
    2.3844    0.1673   -0.0044 C   0  0  0  0  0  0  0  0  0  0  0  0
    0.8369    0.1464    0.0404 C   0  0  0  0  0  0  0  0  0  0  0  0
    0.1041    1.0036    0.5026 O   0  0  0  0  0  0  0  0  0  0  0  0
    0.3547   -1.0177   -0.4783 O   0  0  0  0  0  0  0  0  0  0  0  0
    3.0088    1.5714   -0.2099 C   0  0  0  0  0  0  0  0  0  0  0  0
    2.6229    2.5433    0.9150 C   0  0  0  0  0  0  0  0  0  0  0  0
    4.5445    1.5137   -0.2627 C   0  0  0  0  0  0  0  0  0  0  0  0
    3.8017   -0.8652   -1.0988 H   0  0  0  0  0  0  0  0  0  0  0  0
    2.5412   -0.3722   -1.9882 H   0  0  0  0  0  0  0  0  0  0  0  0
    2.7216   -0.2543    0.9498 H   0  0  0  0  0  0  0  0  0  0  0  0
    1.1496   -1.5204   -0.7868 H   0  0  0  0  0  0  0  0  0  0  0  0
    2.6504    1.9941   -1.1571 H   0  0  0  0  0  0  0  0  0  0  0  0
    2.7922    2.0989    1.9000 H   0  0  0  0  0  0  0  0  0  0  0  0
    1.5743    2.8411    0.8516 H   0  0  0  0  0  0  0  0  0  0  0  0
    3.2093    3.4671    0.8554 H   0  0  0  0  0  0  0  0  0  0  0  0
    4.9524    1.0200    0.6261 H   0  0  0  0  0  0  0  0  0  0  0  0
    4.9725    2.5198   -0.3136 H   0  0  0  0  0  0  0  0  0  0  0  0
    4.9017    0.9753   -1.1498 H   0  0  0  0  0  0  0  0  0  0  0  0
  1  9 1.00  0  0  0  0
  1  2 1.00  0  0  0  0
  2  6 1.00  0  0  0  0
  2  3 1.00  0  0  0  0
  3  4 2.00  0  0  0  0
  3  5 1.00  0  0  0  0
  6  7 1.00  0  0  0  0
  6  8 1.00  0  0  0  0
  7 15 1.00  0  0  0  0
  7 16 1.00  0  0  0  0
  8 17 1.00  0  0  0  0
  8 18 1.00  0  0  0  0
  8 19 1.00  0  0  0  0
 10  1 1.00  0  0  0  0
 11  2 1.00  0  0  0  0
 12  5 1.00  0  0  0  0
 13  6 1.00  0  0  0  0
 14  7 1.00  0  0  0  0
M  END

