
 OpenBabel04052304213D

 23 22  0  0  0  0  0  0  0  0999 V2000
    3.5607   -0.9271    2.1742 C   0  0  0  0  0  0  0  0  0  0  0  0
    3.0793   -0.6080    0.7676 C   0  0  0  0  0  0  0  0  0  0  0  0
    3.5984   -1.6135   -0.2185 C   0  0  0  0  0  0  0  0  0  0  0  0
    4.3829   -1.3028   -1.2621 C   0  0  0  0  0  0  0  0  0  0  0  0
    4.9041   -2.3161   -2.2427 C   0  0  0  0  0  0  0  0  0  0  0  0
    6.4366   -2.3436   -2.2579 C   0  0  0  0  0  0  0  0  0  0  0  0
    6.9634   -3.3568   -3.2373 C   0  0  0  0  0  0  0  0  0  0  0  0
    7.7476   -4.3909   -2.8929 C   0  0  0  0  0  0  0  0  0  0  0  0
    8.2339   -5.3312   -3.8447 C   0  0  0  0  0  0  0  0  0  0  0  0
    8.6324   -6.1005   -4.6152 N   0  0  0  0  0  0  0  0  0  0  0  0
    3.1780   -0.1864    2.8832 H   0  0  0  0  0  0  0  0  0  0  0  0
    4.6547   -0.9161    2.2288 H   0  0  0  0  0  0  0  0  0  0  0  0
    3.2139   -1.9148    2.4967 H   0  0  0  0  0  0  0  0  0  0  0  0
    3.3962    0.4065    0.4990 H   0  0  0  0  0  0  0  0  0  0  0  0
    1.9838   -0.6196    0.7431 H   0  0  0  0  0  0  0  0  0  0  0  0
    3.3031   -2.6483   -0.0541 H   0  0  0  0  0  0  0  0  0  0  0  0
    4.6652   -0.2654   -1.4333 H   0  0  0  0  0  0  0  0  0  0  0  0
    4.5226   -2.0604   -3.2388 H   0  0  0  0  0  0  0  0  0  0  0  0
    4.5196   -3.3156   -2.0033 H   0  0  0  0  0  0  0  0  0  0  0  0
    6.8130   -2.5518   -1.2482 H   0  0  0  0  0  0  0  0  0  0  0  0
    6.8241   -1.3568   -2.5412 H   0  0  0  0  0  0  0  0  0  0  0  0
    6.6850   -3.2125   -4.2813 H   0  0  0  0  0  0  0  0  0  0  0  0
    8.0423   -4.5477   -1.8608 H   0  0  0  0  0  0  0  0  0  0  0  0
  1  2  1  0  0  0  0
  1 11  1  0  0  0  0
  1 12  1  0  0  0  0
  1 13  1  0  0  0  0
  2  3  1  0  0  0  0
  2 14  1  0  0  0  0
  2 15  1  0  0  0  0
  3  4  2  3  0  0  0
  3 16  1  0  0  0  0
  4  5  1  0  0  0  0
  4 17  1  0  0  0  0
  5  6  1  0  0  0  0
  5 18  1  0  0  0  0
  5 19  1  0  0  0  0
  6  7  1  0  0  0  0
  6 20  1  0  0  0  0
  6 21  1  0  0  0  0
  7  8  2  0  0  0  0
  7 22  1  0  0  0  0
  8  9  1  0  0  0  0
  8 23  1  0  0  0  0
  9 10  3  0  0  0  0
M  END
$$$$
